/*---------------------------------------------------------------------------*\
  =========                 |
  \\      /  F ield         | OpenFOAM: The Open Source CFD Toolbox
   \\    /   O peration     | Website:  https://openfoam.org
    \\  /    A nd           | Version:  7
     \\/     M anipulation  |
\*---------------------------------------------------------------------------*/
Build  : 7
Exec   : HydrothermalSinglePhaseDarcyFoam -parallel
Date   : May 24 2022
Time   : 10:46:02
Host   : "muhs-nb017mc"
PID    : 4472
I/O    : uncollated
Case   : /Users/lruepke/Research/Lectures/HTF_lecture/Summer2022/source/lectures/L05/cases/Driesner2010/HS86kw/5E-14
nProcs : 3
Slaves : 
2
(
"muhs-nb017mc.4474"
"muhs-nb017mc.4475"
)

Pstream initialized with:
    floatTransfer      : 0
    nProcsSimpleSum    : 0
    commsType          : nonBlocking
    polling iterations : 0
sigFpe : Enabling floating point exception trapping (FOAM_SIGFPE).
fileModificationChecking : Monitoring run-time modified files using timeStampMaster (fileModificationSkew 10)
allowSystemOperations : Allowing user-supplied system call operations

// * * * * * * * * * * * * * * * * * * * * * * * * * * * * * * * * * * * * * //
Create time

--> FOAM Warning : 
    From function dlOpen(const fileName&, const bool)
    in file POSIX.C at line 1264
    dlOpen: using fallback library name "libHydrothermalBoundaryConditions.dylib"
--> FOAM Warning : 
    From function dlOpen(const fileName&, const bool)
    in file POSIX.C at line 1264
    dlOpen: using fallback library name "libHydroThermoPhysicalModels.dylib"
Create mesh for time = 0


PIMPLE: No convergence criteria found


PIMPLE: Operating solver in transient mode with 1 outer corrector
PIMPLE: Operating solver in PISO mode


Selecting thermodynamics package 
{
    type            htHydroThermo;
    mixture         pureMixture;
    transport       IAPWS;
    thermo          IAPWS;
    equationOfState IAPWS;
    specie          specie;
    energy          temperature;
}


Reading g
Use a constant g
Reading/calculating face flux field phi

Initialize hydrostatic pressure
DICPCG:  Solving for p, Initial residual = 1, Final residual = 9.44201e-13, No Iterations 364
DICPCG:  Solving for p, Initial residual = 4.47647e-05, Final residual = 8.7578e-13, No Iterations 281
Initialize hydrostatic pressure end
--> FOAM Warning : 
    From function dlOpen(const fileName&, const bool)
    in file POSIX.C at line 1264
    dlOpen: using fallback library name "libutilityFunctionObjects.dylib"
Using dynamicCode for functionObject calPlumeT at line 46 in "/Users/lruepke/Research/Lectures/HTF_lecture/Summer2022/source/lectures/L05/cases/Driesner2010/HS86kw/5E-14/system/controlDict.functions.calPlumeT"
Creating new library in "dynamicCode/plumeTemperature/platforms/darwin64ClangDPInt32Opt/lib/libplumeTemperature_458a6d83b7c6a4a9daeed2389c4cb96ebf80410e.dylib"
Invoking "wmake -s libso /Users/lruepke/Research/Lectures/HTF_lecture/Summer2022/source/lectures/L05/cases/Driesner2010/HS86kw/5E-14/dynamicCode/plumeTemperature"
wmake libso /Users/lruepke/Research/Lectures/HTF_lecture/Summer2022/source/lectures/L05/cases/Driesner2010/HS86kw/5E-14/dynamicCode/plumeTemperature
    ln: ./lnInclude
    wmkdep: functionObjectTemplate.C
    Ctoo: functionObjectTemplate.C
    ld: /Users/lruepke/Research/Lectures/HTF_lecture/Summer2022/source/lectures/L05/cases/Driesner2010/HS86kw/5E-14/dynamicCode/plumeTemperature/../platforms/darwin64ClangDPInt32Opt/lib/libplumeTemperature_458a6d83b7c6a4a9daeed2389c4cb96ebf80410e.dylib
--> FOAM Warning : 
    From function dlOpen(const fileName&, const bool)
    in file POSIX.C at line 1264
    dlOpen: using fallback library name "libutilityFunctionObjects.dylib"
Courant Number mean: 2.12707e-13 max: 8.06769e-13
deltaT = 1.02835e+06
DILUPBiCG:  Solving for T, Initial residual = 1, Final residual = 4.0571e-07, No Iterations 2
DICPCG:  Solving for p, Initial residual = 1.7091e-06, Final residual = 8.79879e-13, No Iterations 256
Time = 1028347.826087 s = 0.0326087 year  Progress = 0.0108696%

ExecutionTime = 10.54 s ClockTime = 25 s

Courant Number mean: 1.15166e-05 max: 3.83734e-05
deltaT = 1.23131e+06
DILUPBiCG:  Solving for T, Initial residual = 0.232472, Final residual = 1.59604e-07, No Iterations 2
DICPCG:  Solving for p, Initial residual = 1.12138e-06, Final residual = 9.31751e-13, No Iterations 244
Time = 2259659.0389016 s = 0.0716533 year  Progress = 0.0238844%

ExecutionTime = 10.75 s ClockTime = 25 s

Courant Number mean: 2.03357e-05 max: 5.99954e-05
deltaT = 1.46585e+06
DILUPBiCG:  Solving for T, Initial residual = 0.141208, Final residual = 1.61454e-07, No Iterations 2
DICPCG:  Solving for p, Initial residual = 1.16006e-06, Final residual = 9.29406e-13, No Iterations 245
Time = 3725505.7208238 s = 0.118135 year  Progress = 0.0393783%

ExecutionTime = 10.96 s ClockTime = 25 s

Courant Number mean: 3.03196e-05 max: 8.83531e-05
deltaT = 1.74774e+06
DILUPBiCG:  Solving for T, Initial residual = 0.106447, Final residual = 2.03427e-07, No Iterations 2
DICPCG:  Solving for p, Initial residual = 1.53646e-06, Final residual = 9.83653e-13, No Iterations 246
Time = 5473245.9954233 s = 0.173555 year  Progress = 0.0578518%

ExecutionTime = 11.17 s ClockTime = 26 s

Courant Number mean: 4.31149e-05 max: 0.000126465
deltaT = 2.0729e+06
DILUPBiCG:  Solving for T, Initial residual = 0.0878119, Final residual = 2.75868e-07, No Iterations 2
DICPCG:  Solving for p, Initial residual = 2.2237e-06, Final residual = 8.97392e-13, No Iterations 248
Time = 7546147.2513437 s = 0.239287 year  Progress = 0.0797623%

ExecutionTime = 11.39 s ClockTime = 26 s

Courant Number mean: 5.96001e-05 max: 0.000176081
deltaT = 2.48748e+06
DILUPBiCG:  Solving for T, Initial residual = 0.0773673, Final residual = 4.11873e-07, No Iterations 2
DICPCG:  Solving for p, Initial residual = 3.24654e-06, Final residual = 9.36007e-13, No Iterations 249
Time = 10033628.758448 s = 0.318164 year  Progress = 0.106055%

ExecutionTime = 11.59 s ClockTime = 26 s

Courant Number mean: 8.2035e-05 max: 0.000243434
deltaT = 2.91636e+06
DILUPBiCG:  Solving for T, Initial residual = 0.0689081, Final residual = 5.8004e-07, No Iterations 2
DICPCG:  Solving for p, Initial residual = 4.77962e-06, Final residual = 9.98399e-13, No Iterations 250
Time = 12949986.387467 s = 0.410641 year  Progress = 0.13688%

ExecutionTime = 11.79 s ClockTime = 26 s

Courant Number mean: 0.000108979 max: 0.000324342
deltaT = 3.40242e+06
DILUPBiCG:  Solving for T, Initial residual = 0.0627668, Final residual = 8.2435e-07, No Iterations 2
DICPCG:  Solving for p, Initial residual = 6.84951e-06, Final residual = 9.61477e-13, No Iterations 252
Time = 16352403.621323 s = 0.518531 year  Progress = 0.172844%

ExecutionTime = 12 s ClockTime = 26 s

Courant Number mean: 0.000142267 max: 0.000433301
deltaT = 3.91278e+06
DILUPBiCG:  Solving for T, Initial residual = 0.0575572, Final residual = 2.30113e-09, No Iterations 3
DICPCG:  Solving for p, Initial residual = 9.70416e-06, Final residual = 9.49893e-13, No Iterations 254
Time = 20265183.440257 s = 0.642605 year  Progress = 0.214202%

ExecutionTime = 12.2 s ClockTime = 27 s

Courant Number mean: 0.000181022 max: 0.000595563
deltaT = 4.64643e+06
DILUPBiCG:  Solving for T, Initial residual = 0.0553657, Final residual = 4.08275e-09, No Iterations 3
DICPCG:  Solving for p, Initial residual = 1.34805e-05, Final residual = 9.871e-13, No Iterations 254
Time = 24911609.475241 s = 0.789942 year  Progress = 0.263314%

ExecutionTime = 12.41 s ClockTime = 27 s

Courant Number mean: 0.000235259 max: 0.000835984
deltaT = 5.36126e+06
DILUPBiCG:  Solving for T, Initial residual = 0.0522256, Final residual = 6.48538e-09, No Iterations 3
DICPCG:  Solving for p, Initial residual = 1.92976e-05, Final residual = 9.78569e-13, No Iterations 255
Time = 30272870.284837 s = 0.959946 year  Progress = 0.319982%

ExecutionTime = 12.62 s ClockTime = 27 s

Courant Number mean: 0.000295141 max: 0.00113462
deltaT = 6.43351e+06
DILUPBiCG:  Solving for T, Initial residual = 0.0516878, Final residual = 1.26346e-08, No Iterations 3
DICPCG:  Solving for p, Initial residual = 2.68084e-05, Final residual = 9.66182e-13, No Iterations 256
Time = 36706383.256354 s = 1.16395 year  Progress = 0.387984%

ExecutionTime = 12.83 s ClockTime = 27 s

Courant Number mean: 0.000381958 max: 0.00158358
deltaT = 7.2377e+06
DILUPBiCG:  Solving for T, Initial residual = 0.048215, Final residual = 1.86227e-08, No Iterations 3
DICPCG:  Solving for p, Initial residual = 3.87644e-05, Final residual = 9.85954e-13, No Iterations 256
Time = 43944085.349309 s = 1.39346 year  Progress = 0.464486%

ExecutionTime = 13.06 s ClockTime = 28 s

Courant Number mean: 0.000462153 max: 0.00206167
deltaT = 8.44399e+06
DILUPBiCG:  Solving for T, Initial residual = 0.0471208, Final residual = 3.45666e-08, No Iterations 3
DICPCG:  Solving for p, Initial residual = 5.23213e-05, Final residual = 9.27876e-13, No Iterations 256
Time = 52388071.124425 s = 1.66121 year  Progress = 0.553738%

ExecutionTime = 13.31 s ClockTime = 28 s

Courant Number mean: 0.000575792 max: 0.00273543
deltaT = 8.44399e+06
DILUPBiCG:  Solving for T, Initial residual = 0.0399042, Final residual = 2.93833e-08, No Iterations 3
DICPCG:  Solving for p, Initial residual = 7.29396e-05, Final residual = 9.57433e-13, No Iterations 257
Time = 60832056.89954 s = 1.92897 year  Progress = 0.642991%

ExecutionTime = 13.59 s ClockTime = 28 s

Courant Number mean: 0.000615124 max: 0.00308072
deltaT = 8.44399e+06
DILUPBiCG:  Solving for T, Initial residual = 0.0346242, Final residual = 2.55717e-08, No Iterations 3
DICPCG:  Solving for p, Initial residual = 8.5549e-05, Final residual = 8.96211e-13, No Iterations 257
Time = 69276042.674655 s = 2.19673 year  Progress = 0.732243%

ExecutionTime = 13.83 s ClockTime = 28 s

Courant Number mean: 0.000651071 max: 0.00337145
deltaT = 8.44399e+06
DILUPBiCG:  Solving for T, Initial residual = 0.0305931, Final residual = 2.26222e-08, No Iterations 3
DICPCG:  Solving for p, Initial residual = 9.83117e-05, Final residual = 8.77781e-13, No Iterations 257
Time = 77720028.44977 s = 2.46449 year  Progress = 0.821495%

ExecutionTime = 14.06 s ClockTime = 29 s

Courant Number mean: 0.000684548 max: 0.00360851
deltaT = 8.44399e+06
DILUPBiCG:  Solving for T, Initial residual = 0.027411, Final residual = 2.02536e-08, No Iterations 3
DICPCG:  Solving for p, Initial residual = 0.000111202, Final residual = 8.74857e-13, No Iterations 257
Time = 86164014.224885 s = 2.73224 year  Progress = 0.910748%

ExecutionTime = 14.29 s ClockTime = 29 s

Courant Number mean: 0.000716439 max: 0.00379067
deltaT = 8.44399e+06
DILUPBiCG:  Solving for T, Initial residual = 0.0248342, Final residual = 1.83047e-08, No Iterations 3
DICPCG:  Solving for p, Initial residual = 0.000124219, Final residual = 9.25533e-13, No Iterations 257
Time = 94608000 s = 3 year  Progress = 1%

ExecutionTime = 14.56 s ClockTime = 29 s

Courant Number mean: 0.000747413 max: 0.00392148
deltaT = 9.4608e+06
DILUPBiCG:  Solving for T, Initial residual = 0.0253679, Final residual = 2.94718e-08, No Iterations 3
DICPCG:  Solving for p, Initial residual = 0.00013742, Final residual = 8.47814e-13, No Iterations 258
Time = 104068800 s = 3.3 year  Progress = 1.1%

ExecutionTime = 14.8 s ClockTime = 29 s

Courant Number mean: 0.000870248 max: 0.00447557
deltaT = 1.06434e+07
DILUPBiCG:  Solving for T, Initial residual = 0.0259714, Final residual = 4.81656e-08, No Iterations 3
DICPCG:  Solving for p, Initial residual = 0.00017017, Final residual = 9.1505e-13, No Iterations 259
Time = 114712200 s = 3.6375 year  Progress = 1.2125%

ExecutionTime = 15.06 s ClockTime = 30 s

Courant Number mean: 0.0010202 max: 0.00506776
deltaT = 1.24173e+07
DILUPBiCG:  Solving for T, Initial residual = 0.0274972, Final residual = 9.39969e-08, No Iterations 3
DICPCG:  Solving for p, Initial residual = 0.000212282, Final residual = 8.52736e-13, No Iterations 261
Time = 127129500 s = 4.03125 year  Progress = 1.34375%

ExecutionTime = 15.36 s ClockTime = 30 s

Courant Number mean: 0.00124473 max: 0.00586561
deltaT = 1.24173e+07
DILUPBiCG:  Solving for T, Initial residual = 0.0249325, Final residual = 8.41693e-08, No Iterations 3
DICPCG:  Solving for p, Initial residual = 0.000276428, Final residual = 9.92172e-13, No Iterations 262
Time = 139546800 s = 4.425 year  Progress = 1.475%

ExecutionTime = 15.61 s ClockTime = 30 s

Courant Number mean: 0.00131517 max: 0.00659346
deltaT = 1.24173e+07
DILUPBiCG:  Solving for T, Initial residual = 0.0228223, Final residual = 7.61933e-08, No Iterations 3
DICPCG:  Solving for p, Initial residual = 0.000308177, Final residual = 9.80246e-13, No Iterations 264
Time = 151964100 s = 4.81875 year  Progress = 1.60625%

ExecutionTime = 15.84 s ClockTime = 30 s

Courant Number mean: 0.00139199 max: 0.00759968
deltaT = 1.24173e+07
DILUPBiCG:  Solving for T, Initial residual = 0.0210556, Final residual = 6.96067e-08, No Iterations 3
DICPCG:  Solving for p, Initial residual = 0.000342375, Final residual = 8.77821e-13, No Iterations 267
Time = 164381400 s = 5.2125 year  Progress = 1.7375%

ExecutionTime = 16.08 s ClockTime = 31 s

Courant Number mean: 0.001478 max: 0.00880418
deltaT = 1.24173e+07
DILUPBiCG:  Solving for T, Initial residual = 0.0195562, Final residual = 6.40804e-08, No Iterations 3
DICPCG:  Solving for p, Initial residual = 0.000380261, Final residual = 9.56354e-13, No Iterations 268
Time = 176798700 s = 5.60625 year  Progress = 1.86875%

ExecutionTime = 16.29 s ClockTime = 31 s

Courant Number mean: 0.00157871 max: 0.0102954
deltaT = 1.24173e+07
DILUPBiCG:  Solving for T, Initial residual = 0.018272, Final residual = 5.94285e-08, No Iterations 3
DICPCG:  Solving for p, Initial residual = 0.000424128, Final residual = 9.96266e-13, No Iterations 270
Time = 189216000 s = 6 year  Progress = 2%

ExecutionTime = 16.57 s ClockTime = 31 s

Courant Number mean: 0.00170462 max: 0.0122375
deltaT = 1.35154e+07
DILUPBiCG:  Solving for T, Initial residual = 0.0186587, Final residual = 8.44937e-08, No Iterations 3
DICPCG:  Solving for p, Initial residual = 0.000478057, Final residual = 9.76395e-13, No Iterations 280
Time = 202731428.57143 s = 6.42857 year  Progress = 2.14286%

ExecutionTime = 16.82 s ClockTime = 31 s

Courant Number mean: 0.00203647 max: 0.0162763
deltaT = 1.62185e+07
DILUPBiCG:  Solving for T, Initial residual = 0.020984, Final residual = 1.94115e-07, No Iterations 3
DICPCG:  Solving for p, Initial residual = 0.000603759, Final residual = 9.74487e-13, No Iterations 283
Time = 218949942.85714 s = 6.94286 year  Progress = 2.31429%

ExecutionTime = 17.09 s ClockTime = 32 s

Courant Number mean: 0.00280426 max: 0.0258574
deltaT = 1.62185e+07
DILUPBiCG:  Solving for T, Initial residual = 0.0197233, Final residual = 1.8452e-07, No Iterations 3
DICPCG:  Solving for p, Initial residual = 0.000915007, Final residual = 9.77571e-13, No Iterations 292
Time = 235168457.14286 s = 7.45714 year  Progress = 2.48571%

ExecutionTime = 17.42 s ClockTime = 32 s

Courant Number mean: 0.00373178 max: 0.0438251
deltaT = 1.62185e+07
DILUPBiCG:  Solving for T, Initial residual = 0.0191612, Final residual = 1.95944e-07, No Iterations 3
DICPCG:  Solving for p, Initial residual = 0.00121975, Final residual = 8.95384e-13, No Iterations 292
Time = 251386971.42857 s = 7.97143 year  Progress = 2.65714%

ExecutionTime = 17.65 s ClockTime = 32 s

Courant Number mean: 0.0047385 max: 0.0962023
deltaT = 1.62185e+07
DILUPBiCG:  Solving for T, Initial residual = 0.018396, Final residual = 2.02403e-07, No Iterations 3
DICPCG:  Solving for p, Initial residual = 0.00119461, Final residual = 9.71925e-13, No Iterations 296
Time = 267605485.71429 s = 8.48571 year  Progress = 2.82857%

ExecutionTime = 17.9 s ClockTime = 32 s

Courant Number mean: 0.00422223 max: 0.259398
deltaT = 1.62185e+07
DILUPBiCG:  Solving for T, Initial residual = 0.016776, Final residual = 1.89869e-07, No Iterations 3
DICPCG:  Solving for p, Initial residual = 0.00102273, Final residual = 9.75755e-13, No Iterations 296
Time = 283824000 s = 9 year  Progress = 3%

ExecutionTime = 18.18 s ClockTime = 33 s

Courant Number mean: 0.00365221 max: 0.347391
deltaT = 1.89216e+07
DILUPBiCG:  Solving for T, Initial residual = 0.017959, Final residual = 4.91648e-07, No Iterations 3
DICPCG:  Solving for p, Initial residual = 0.000859371, Final residual = 9.49607e-13, No Iterations 293
Time = 302745600 s = 9.6 year  Progress = 3.2%

ExecutionTime = 18.45 s ClockTime = 33 s

Courant Number mean: 0.00389199 max: 0.458369
deltaT = 1.89216e+07
DILUPBiCG:  Solving for T, Initial residual = 0.0166065, Final residual = 7.64637e-07, No Iterations 3
DICPCG:  Solving for p, Initial residual = 0.000870456, Final residual = 8.88119e-13, No Iterations 292
Time = 321667200 s = 10.2 year  Progress = 3.4%

ExecutionTime = 18.72 s ClockTime = 33 s

Courant Number mean: 0.00368387 max: 0.474816
deltaT = 1.89216e+07
DILUPBiCG:  Solving for T, Initial residual = 0.0155161, Final residual = 8.90672e-08, No Iterations 4
DICPCG:  Solving for p, Initial residual = 0.000788627, Final residual = 9.54279e-13, No Iterations 289
Time = 340588800 s = 10.8 year  Progress = 3.6%

ExecutionTime = 18.98 s ClockTime = 33 s

Courant Number mean: 0.00359645 max: 0.526161
deltaT = 1.89216e+07
DILUPBiCG:  Solving for T, Initial residual = 0.0146031, Final residual = 3.40447e-08, No Iterations 4
DICPCG:  Solving for p, Initial residual = 0.00074777, Final residual = 9.15893e-13, No Iterations 289
Time = 359510400 s = 11.4 year  Progress = 3.8%

ExecutionTime = 19.24 s ClockTime = 34 s

Courant Number mean: 0.00357066 max: 0.581642
deltaT = 1.89216e+07
DILUPBiCG:  Solving for T, Initial residual = 0.0138066, Final residual = 1.32405e-08, No Iterations 4
DICPCG:  Solving for p, Initial residual = 0.000729735, Final residual = 9.79195e-13, No Iterations 288
Time = 378432000 s = 12 year  Progress = 4%

ExecutionTime = 19.55 s ClockTime = 34 s

Courant Number mean: 0.00358377 max: 0.622552
deltaT = 1.89216e+07
DILUPBiCG:  Solving for T, Initial residual = 0.0131032, Final residual = 2.01151e-08, No Iterations 4
DICPCG:  Solving for p, Initial residual = 0.00072624, Final residual = 9.01617e-13, No Iterations 288
Time = 397353600 s = 12.6 year  Progress = 4.2%

ExecutionTime = 19.82 s ClockTime = 34 s

Courant Number mean: 0.00363638 max: 0.64163
deltaT = 1.89216e+07
DILUPBiCG:  Solving for T, Initial residual = 0.0124825, Final residual = 2.83725e-08, No Iterations 4
DICPCG:  Solving for p, Initial residual = 0.000735417, Final residual = 9.87582e-13, No Iterations 284
Time = 416275200 s = 13.2 year  Progress = 4.4%

ExecutionTime = 20.08 s ClockTime = 35 s

Courant Number mean: 0.00373766 max: 0.646735
deltaT = 1.89216e+07
DILUPBiCG:  Solving for T, Initial residual = 0.0119366, Final residual = 3.26423e-08, No Iterations 4
DICPCG:  Solving for p, Initial residual = 0.000760201, Final residual = 9.84965e-13, No Iterations 279
Time = 435196800 s = 13.8 year  Progress = 4.6%

ExecutionTime = 20.35 s ClockTime = 35 s

Courant Number mean: 0.00390378 max: 0.657466
deltaT = 1.89216e+07
DILUPBiCG:  Solving for T, Initial residual = 0.0114614, Final residual = 3.538e-08, No Iterations 4
DICPCG:  Solving for p, Initial residual = 0.000808554, Final residual = 9.61901e-13, No Iterations 280
Time = 454118400 s = 14.4 year  Progress = 4.8%

ExecutionTime = 20.63 s ClockTime = 35 s

Courant Number mean: 0.00417225 max: 0.692674
deltaT = 1.89216e+07
DILUPBiCG:  Solving for T, Initial residual = 0.0110721, Final residual = 3.76696e-08, No Iterations 4
DICPCG:  Solving for p, Initial residual = 0.000900441, Final residual = 8.48971e-13, No Iterations 291
Time = 473040000 s = 15 year  Progress = 5%

ExecutionTime = 20.93 s ClockTime = 35 s

Courant Number mean: 0.00465599 max: 0.703354
deltaT = 1.89216e+07
DILUPBiCG:  Solving for T, Initial residual = 0.0108582, Final residual = 9.59248e-07, No Iterations 3
DICPCG:  Solving for p, Initial residual = 0.00108078, Final residual = 8.80866e-13, No Iterations 295
Time = 491961600 s = 15.6 year  Progress = 5.2%

ExecutionTime = 21.18 s ClockTime = 36 s

Courant Number mean: 0.0056277 max: 0.689224
deltaT = 1.89216e+07
DILUPBiCG:  Solving for T, Initial residual = 0.0107529, Final residual = 4.2476e-08, No Iterations 4
DICPCG:  Solving for p, Initial residual = 0.00121642, Final residual = 9.29612e-13, No Iterations 291
Time = 510883200 s = 16.2 year  Progress = 5.4%

ExecutionTime = 21.45 s ClockTime = 36 s

Courant Number mean: 0.00631078 max: 1.05989
deltaT = 1.41912e+07
DILUPBiCG:  Solving for T, Initial residual = 0.00812235, Final residual = 1.62678e-07, No Iterations 3
DICPCG:  Solving for p, Initial residual = 0.00107747, Final residual = 8.95103e-13, No Iterations 301
Time = 525074400 s = 16.65 year  Progress = 5.55%

ExecutionTime = 21.72 s ClockTime = 36 s

Courant Number mean: 0.00497675 max: 1.29506
deltaT = 8.51472e+06
DILUPBiCG:  Solving for T, Initial residual = 0.00529481, Final residual = 9.70673e-07, No Iterations 2
DICPCG:  Solving for p, Initial residual = 0.000759368, Final residual = 9.90032e-13, No Iterations 297
Time = 533589120 s = 16.92 year  Progress = 5.64%

ExecutionTime = 21.99 s ClockTime = 36 s

Courant Number mean: 0.00335482 max: 1.1138
deltaT = 5.67648e+06
DILUPBiCG:  Solving for T, Initial residual = 0.00404393, Final residual = 1.27366e-07, No Iterations 2
DICPCG:  Solving for p, Initial residual = 0.0004832, Final residual = 9.92397e-13, No Iterations 294
Time = 539265600 s = 17.1 year  Progress = 5.7%

ExecutionTime = 22.25 s ClockTime = 37 s

Courant Number mean: 0.00248864 max: 1.05783
deltaT = 4.05463e+06
DILUPBiCG:  Solving for T, Initial residual = 0.00310446, Final residual = 4.83816e-08, No Iterations 2
DICPCG:  Solving for p, Initial residual = 0.000375934, Final residual = 8.67042e-13, No Iterations 283
Time = 543320228.57143 s = 17.2286 year  Progress = 5.74286%

ExecutionTime = 22.52 s ClockTime = 37 s

Courant Number mean: 0.00204492 max: 0.929479
deltaT = 3.4754e+06
DILUPBiCG:  Solving for T, Initial residual = 0.00281341, Final residual = 3.90806e-08, No Iterations 2
DICPCG:  Solving for p, Initial residual = 0.000280888, Final residual = 9.36921e-13, No Iterations 283
Time = 546795624.4898 s = 17.3388 year  Progress = 5.77959%

ExecutionTime = 22.78 s ClockTime = 37 s

Courant Number mean: 0.00198093 max: 0.899614
deltaT = 2.97891e+06
DILUPBiCG:  Solving for T, Initial residual = 0.00248734, Final residual = 2.86945e-08, No Iterations 2
DICPCG:  Solving for p, Initial residual = 0.000264216, Final residual = 8.87012e-13, No Iterations 284
Time = 549774535.27697 s = 17.4332 year  Progress = 5.81108%

ExecutionTime = 23.02 s ClockTime = 38 s

Courant Number mean: 0.00192543 max: 0.859188
deltaT = 2.55335e+06
DILUPBiCG:  Solving for T, Initial residual = 0.00227127, Final residual = 2.36229e-08, No Iterations 2
DICPCG:  Solving for p, Initial residual = 0.00025685, Final residual = 9.86984e-13, No Iterations 291
Time = 552327887.38026 s = 17.5142 year  Progress = 5.83807%

ExecutionTime = 23.27 s ClockTime = 38 s

Courant Number mean: 0.00191829 max: 0.89832
deltaT = 2.18859e+06
DILUPBiCG:  Solving for T, Initial residual = 0.0022376, Final residual = 3.30386e-08, No Iterations 2
DICPCG:  Solving for p, Initial residual = 0.000281828, Final residual = 9.26234e-13, No Iterations 296
Time = 554516474.89736 s = 17.5836 year  Progress = 5.8612%

ExecutionTime = 23.52 s ClockTime = 38 s

Courant Number mean: 0.00205247 max: 1.03167
deltaT = 1.64144e+06
DILUPBiCG:  Solving for T, Initial residual = 0.00175703, Final residual = 7.44591e-09, No Iterations 2
DICPCG:  Solving for p, Initial residual = 0.000284755, Final residual = 9.16377e-13, No Iterations 294
Time = 556157915.53519 s = 17.6357 year  Progress = 5.87855%

ExecutionTime = 23.79 s ClockTime = 38 s

Courant Number mean: 0.00155392 max: 0.855887
deltaT = 1.43626e+06
DILUPBiCG:  Solving for T, Initial residual = 0.00159906, Final residual = 2.71501e-09, No Iterations 2
DICPCG:  Solving for p, Initial residual = 0.000222487, Final residual = 9.6978e-13, No Iterations 280
Time = 557594176.09329 s = 17.6812 year  Progress = 5.89373%

ExecutionTime = 24.07 s ClockTime = 39 s

Courant Number mean: 0.00139247 max: 0.72772
deltaT = 1.43626e+06
DILUPBiCG:  Solving for T, Initial residual = 0.00174253, Final residual = 3.86191e-09, No Iterations 2
DICPCG:  Solving for p, Initial residual = 0.000216543, Final residual = 8.57836e-13, No Iterations 286
Time = 559030436.6514 s = 17.7267 year  Progress = 5.90891%

ExecutionTime = 24.31 s ClockTime = 39 s

Courant Number mean: 0.00151406 max: 0.71368
deltaT = 1.43626e+06
DILUPBiCG:  Solving for T, Initial residual = 0.00192409, Final residual = 6.30573e-09, No Iterations 2
DICPCG:  Solving for p, Initial residual = 0.000278115, Final residual = 9.32597e-13, No Iterations 288
Time = 560466697.2095 s = 17.7723 year  Progress = 5.92409%

ExecutionTime = 24.56 s ClockTime = 39 s

Courant Number mean: 0.00169674 max: 0.797605
deltaT = 1.43626e+06
DILUPBiCG:  Solving for T, Initial residual = 0.00202207, Final residual = 2.36846e-08, No Iterations 2
DICPCG:  Solving for p, Initial residual = 0.000314244, Final residual = 9.77371e-13, No Iterations 284
Time = 561902957.7676 s = 17.8178 year  Progress = 5.93928%

ExecutionTime = 24.8 s ClockTime = 39 s

Courant Number mean: 0.00183445 max: 0.808364
deltaT = 1.14901e+06
DILUPBiCG:  Solving for T, Initial residual = 0.00172261, Final residual = 1.23674e-08, No Iterations 2
DICPCG:  Solving for p, Initial residual = 0.000315484, Final residual = 9.27716e-13, No Iterations 269
Time = 563051966.21408 s = 17.8543 year  Progress = 5.95142%

ExecutionTime = 25.07 s ClockTime = 40 s

Courant Number mean: 0.00154673 max: 0.627401
deltaT = 1.14901e+06
DILUPBiCG:  Solving for T, Initial residual = 0.00187379, Final residual = 9.68311e-09, No Iterations 2
DICPCG:  Solving for p, Initial residual = 0.000280577, Final residual = 9.7925e-13, No Iterations 274
Time = 564200974.66056 s = 17.8907 year  Progress = 5.96357%

ExecutionTime = 25.29 s ClockTime = 40 s

Courant Number mean: 0.00159422 max: 0.621396
deltaT = 1.14901e+06
DILUPBiCG:  Solving for T, Initial residual = 0.00191566, Final residual = 6.37657e-11, No Iterations 3
DICPCG:  Solving for p, Initial residual = 0.000319377, Final residual = 9.30857e-13, No Iterations 285
Time = 565349983.10704 s = 17.9271 year  Progress = 5.97571%

ExecutionTime = 25.52 s ClockTime = 40 s

Courant Number mean: 0.00159892 max: 0.660069
deltaT = 1.14901e+06
DILUPBiCG:  Solving for T, Initial residual = 0.00196349, Final residual = 5.09429e-09, No Iterations 2
DICPCG:  Solving for p, Initial residual = 0.000317311, Final residual = 8.81993e-13, No Iterations 291
Time = 566498991.55352 s = 17.9636 year  Progress = 5.98786%

ExecutionTime = 25.76 s ClockTime = 40 s

Courant Number mean: 0.00155997 max: 0.751634
deltaT = 1.14901e+06
DILUPBiCG:  Solving for T, Initial residual = 0.00189286, Final residual = 5.81267e-09, No Iterations 2
DICPCG:  Solving for p, Initial residual = 0.00029776, Final residual = 9.87783e-13, No Iterations 290
Time = 567648000 s = 18 year  Progress = 6%

ExecutionTime = 26.04 s ClockTime = 41 s

Courant Number mean: 0.0014839 max: 0.757702
deltaT = 1.21292e+06
DILUPBiCG:  Solving for T, Initial residual = 0.0019833, Final residual = 5.38091e-09, No Iterations 2
DICPCG:  Solving for p, Initial residual = 0.000274868, Final residual = 9.19868e-13, No Iterations 265
Time = 568860923.07692 s = 18.0385 year  Progress = 6.01282%

ExecutionTime = 26.3 s ClockTime = 41 s

Courant Number mean: 0.00156568 max: 0.79379
deltaT = 1.21292e+06
DILUPBiCG:  Solving for T, Initial residual = 0.00202258, Final residual = 3.3434e-09, No Iterations 2
DICPCG:  Solving for p, Initial residual = 0.0002724, Final residual = 8.91526e-13, No Iterations 284
Time = 570073846.15385 s = 18.0769 year  Progress = 6.02564%

ExecutionTime = 26.57 s ClockTime = 41 s

Courant Number mean: 0.00164617 max: 0.794243
deltaT = 1.21292e+06
DILUPBiCG:  Solving for T, Initial residual = 0.0021718, Final residual = 6.19311e-09, No Iterations 2
DICPCG:  Solving for p, Initial residual = 0.000285294, Final residual = 9.79199e-13, No Iterations 287
Time = 571286769.23077 s = 18.1154 year  Progress = 6.03846%

ExecutionTime = 26.92 s ClockTime = 41 s

Courant Number mean: 0.00178634 max: 0.794824
deltaT = 1.21292e+06
DILUPBiCG:  Solving for T, Initial residual = 0.00216772, Final residual = 4.66794e-09, No Iterations 2
DICPCG:  Solving for p, Initial residual = 0.000307158, Final residual = 9.05267e-13, No Iterations 290
Time = 572499692.30769 s = 18.1538 year  Progress = 6.05128%

ExecutionTime = 27.17 s ClockTime = 42 s

Courant Number mean: 0.00179695 max: 0.795812
deltaT = 1.21292e+06
DILUPBiCG:  Solving for T, Initial residual = 0.0022274, Final residual = 8.72354e-09, No Iterations 2
DICPCG:  Solving for p, Initial residual = 0.000306075, Final residual = 8.78328e-13, No Iterations 277
Time = 573712615.38462 s = 18.1923 year  Progress = 6.0641%

ExecutionTime = 27.43 s ClockTime = 42 s

Courant Number mean: 0.00184573 max: 0.796172
deltaT = 1.21292e+06
DILUPBiCG:  Solving for T, Initial residual = 0.00246963, Final residual = 1.20708e-08, No Iterations 2
DICPCG:  Solving for p, Initial residual = 0.000347274, Final residual = 9.96785e-13, No Iterations 289
Time = 574925538.46154 s = 18.2308 year  Progress = 6.07692%

ExecutionTime = 27.68 s ClockTime = 42 s

Courant Number mean: 0.0020267 max: 0.796184
deltaT = 1.21292e+06
DILUPBiCG:  Solving for T, Initial residual = 0.00276416, Final residual = 1.4852e-08, No Iterations 2
DICPCG:  Solving for p, Initial residual = 0.000440047, Final residual = 9.35449e-13, No Iterations 280
Time = 576138461.53846 s = 18.2692 year  Progress = 6.08974%

ExecutionTime = 27.91 s ClockTime = 42 s

Courant Number mean: 0.00216352 max: 0.798228
deltaT = 1.21292e+06
DILUPBiCG:  Solving for T, Initial residual = 0.0028373, Final residual = 1.77532e-08, No Iterations 2
DICPCG:  Solving for p, Initial residual = 0.000481303, Final residual = 9.55966e-13, No Iterations 295
Time = 577351384.61538 s = 18.3077 year  Progress = 6.10256%

ExecutionTime = 28.16 s ClockTime = 43 s

Courant Number mean: 0.00212362 max: 0.817958
deltaT = 1.17923e+06
DILUPBiCG:  Solving for T, Initial residual = 0.00266725, Final residual = 2.76834e-08, No Iterations 2
DICPCG:  Solving for p, Initial residual = 0.000450139, Final residual = 9.53275e-13, No Iterations 298
Time = 578530615.38462 s = 18.3451 year  Progress = 6.11503%

ExecutionTime = 28.4 s ClockTime = 43 s

Courant Number mean: 0.00190008 max: 0.845508
deltaT = 1.10165e+06
DILUPBiCG:  Solving for T, Initial residual = 0.00245112, Final residual = 3.01889e-08, No Iterations 2
DICPCG:  Solving for p, Initial residual = 0.000439231, Final residual = 9.78131e-13, No Iterations 294
Time = 579632265.18219 s = 18.38 year  Progress = 6.12667%

ExecutionTime = 28.63 s ClockTime = 43 s

Courant Number mean: 0.00183036 max: 0.79113
deltaT = 1.10165e+06
DILUPBiCG:  Solving for T, Initial residual = 0.00242494, Final residual = 4.182e-08, No Iterations 2
DICPCG:  Solving for p, Initial residual = 0.000470786, Final residual = 9.65681e-13, No Iterations 288
Time = 580733914.97976 s = 18.415 year  Progress = 6.13832%

ExecutionTime = 28.88 s ClockTime = 43 s

Courant Number mean: 0.00196519 max: 0.80726
deltaT = 1.08696e+06
DILUPBiCG:  Solving for T, Initial residual = 0.00238159, Final residual = 1.17297e-07, No Iterations 2
DICPCG:  Solving for p, Initial residual = 0.000463716, Final residual = 9.41671e-13, No Iterations 284
Time = 581820876.11336 s = 18.4494 year  Progress = 6.14981%

ExecutionTime = 29.13 s ClockTime = 44 s

Courant Number mean: 0.00193204 max: 0.804175
deltaT = 1.07247e+06
DILUPBiCG:  Solving for T, Initial residual = 0.00234219, Final residual = 9.42708e-08, No Iterations 2
DICPCG:  Solving for p, Initial residual = 0.000440626, Final residual = 9.72423e-13, No Iterations 282
Time = 582893344.43185 s = 18.4834 year  Progress = 6.16114%

ExecutionTime = 29.37 s ClockTime = 44 s

Courant Number mean: 0.0018669 max: 0.801825
deltaT = 1.05817e+06
DILUPBiCG:  Solving for T, Initial residual = 0.00223645, Final residual = 3.07428e-08, No Iterations 2
DICPCG:  Solving for p, Initial residual = 0.000423592, Final residual = 8.90283e-13, No Iterations 291
Time = 583951513.17276 s = 18.517 year  Progress = 6.17233%

ExecutionTime = 29.61 s ClockTime = 44 s

Courant Number mean: 0.0017642 max: 0.793678
deltaT = 1.05817e+06
DILUPBiCG:  Solving for T, Initial residual = 0.00222376, Final residual = 5.77062e-09, No Iterations 2
DICPCG:  Solving for p, Initial residual = 0.000378549, Final residual = 8.76179e-13, No Iterations 289
Time = 585009681.91367 s = 18.5505 year  Progress = 6.18351%

ExecutionTime = 29.84 s ClockTime = 44 s

Courant Number mean: 0.00185117 max: 0.794761
deltaT = 1.05817e+06
DILUPBiCG:  Solving for T, Initial residual = 0.00231236, Final residual = 1.04895e-08, No Iterations 2
DICPCG:  Solving for p, Initial residual = 0.000368955, Final residual = 9.36455e-13, No Iterations 291
Time = 586067850.65457 s = 18.5841 year  Progress = 6.1947%

ExecutionTime = 30.08 s ClockTime = 45 s

Courant Number mean: 0.00206393 max: 0.795891
deltaT = 1.05817e+06
DILUPBiCG:  Solving for T, Initial residual = 0.00241787, Final residual = 9.40283e-09, No Iterations 2
DICPCG:  Solving for p, Initial residual = 0.000394555, Final residual = 9.74328e-13, No Iterations 289
Time = 587126019.39548 s = 18.6176 year  Progress = 6.20588%

ExecutionTime = 30.34 s ClockTime = 45 s

Courant Number mean: 0.00225673 max: 0.802488
deltaT = 1.04347e+06
DILUPBiCG:  Solving for T, Initial residual = 0.00239548, Final residual = 6.22156e-09, No Iterations 2
DICPCG:  Solving for p, Initial residual = 0.000379541, Final residual = 8.66572e-13, No Iterations 287
Time = 588169491.34832 s = 18.6507 year  Progress = 6.21691%

ExecutionTime = 30.57 s ClockTime = 45 s

Courant Number mean: 0.00228917 max: 0.804173
deltaT = 1.02898e+06
DILUPBiCG:  Solving for T, Initial residual = 0.00239345, Final residual = 9.79092e-09, No Iterations 2
DICPCG:  Solving for p, Initial residual = 0.000331345, Final residual = 9.11283e-13, No Iterations 281
Time = 589198470.63515 s = 18.6834 year  Progress = 6.22779%

ExecutionTime = 30.8 s ClockTime = 45 s

Courant Number mean: 0.00233433 max: 0.807354
deltaT = 1.01469e+06
DILUPBiCG:  Solving for T, Initial residual = 0.00239091, Final residual = 1.24562e-07, No Iterations 2
DICPCG:  Solving for p, Initial residual = 0.000330127, Final residual = 8.88801e-13, No Iterations 271
Time = 590213158.543 s = 18.7155 year  Progress = 6.23851%

ExecutionTime = 31.03 s ClockTime = 46 s

Courant Number mean: 0.00237477 max: 0.8124
deltaT = 986888
DILUPBiCG:  Solving for T, Initial residual = 0.00224754, Final residual = 2.69309e-08, No Iterations 2
DICPCG:  Solving for p, Initial residual = 0.000317485, Final residual = 8.70959e-13, No Iterations 287
Time = 591200046.78214 s = 18.7468 year  Progress = 6.24894%

ExecutionTime = 31.28 s ClockTime = 46 s

Courant Number mean: 0.00234801 max: 0.804707
deltaT = 973369
DILUPBiCG:  Solving for T, Initial residual = 0.00217737, Final residual = 1.24382e-08, No Iterations 2
DICPCG:  Solving for p, Initial residual = 0.000295682, Final residual = 9.93656e-13, No Iterations 285
Time = 592173416.0043 s = 18.7777 year  Progress = 6.25923%

ExecutionTime = 31.5 s ClockTime = 46 s

Courant Number mean: 0.00232875 max: 0.804514
deltaT = 960035
DILUPBiCG:  Solving for T, Initial residual = 0.00215399, Final residual = 1.41065e-08, No Iterations 2
DICPCG:  Solving for p, Initial residual = 0.000280102, Final residual = 9.36112e-13, No Iterations 275
Time = 593133451.4015 s = 18.8081 year  Progress = 6.26938%

ExecutionTime = 31.73 s ClockTime = 46 s

Courant Number mean: 0.00231935 max: 0.800875
deltaT = 946884
DILUPBiCG:  Solving for T, Initial residual = 0.00217226, Final residual = 6.68752e-09, No Iterations 2
DICPCG:  Solving for p, Initial residual = 0.000282256, Final residual = 8.89209e-13, No Iterations 273
Time = 594080335.62888 s = 18.8382 year  Progress = 6.27939%

ExecutionTime = 31.96 s ClockTime = 46 s

Courant Number mean: 0.00231009 max: 0.793972
deltaT = 946884
DILUPBiCG:  Solving for T, Initial residual = 0.00225034, Final residual = 8.90594e-09, No Iterations 2
DICPCG:  Solving for p, Initial residual = 0.000283699, Final residual = 9.94703e-13, No Iterations 273
Time = 595027219.85625 s = 18.8682 year  Progress = 6.2894%

ExecutionTime = 32.2 s ClockTime = 47 s

Courant Number mean: 0.00234635 max: 0.794568
deltaT = 946884
DILUPBiCG:  Solving for T, Initial residual = 0.00241051, Final residual = 1.08803e-08, No Iterations 2
DICPCG:  Solving for p, Initial residual = 0.000317394, Final residual = 9.20468e-13, No Iterations 284
Time = 595974104.08363 s = 18.8982 year  Progress = 6.2994%

ExecutionTime = 32.43 s ClockTime = 47 s

Courant Number mean: 0.00241851 max: 0.791586
deltaT = 946884
DILUPBiCG:  Solving for T, Initial residual = 0.00261508, Final residual = 1.65359e-08, No Iterations 2
DICPCG:  Solving for p, Initial residual = 0.000374265, Final residual = 9.15914e-13, No Iterations 279
Time = 596920988.31101 s = 18.9282 year  Progress = 6.30941%

ExecutionTime = 32.66 s ClockTime = 47 s

Courant Number mean: 0.00247841 max: 0.807473
deltaT = 933357
DILUPBiCG:  Solving for T, Initial residual = 0.00267369, Final residual = 5.52176e-09, No Iterations 2
DICPCG:  Solving for p, Initial residual = 0.000436009, Final residual = 9.79268e-13, No Iterations 294
Time = 597854345.62085 s = 18.9578 year  Progress = 6.31928%

ExecutionTime = 32.9 s ClockTime = 47 s

Courant Number mean: 0.00232922 max: 0.801175
deltaT = 920024
DILUPBiCG:  Solving for T, Initial residual = 0.00268238, Final residual = 6.99087e-09, No Iterations 2
DICPCG:  Solving for p, Initial residual = 0.000537695, Final residual = 9.97715e-13, No Iterations 295
Time = 598774369.25484 s = 18.987 year  Progress = 6.329%

ExecutionTime = 33.15 s ClockTime = 48 s

Courant Number mean: 0.00213171 max: 0.785641
deltaT = 933553
DILUPBiCG:  Solving for T, Initial residual = 0.00267009, Final residual = 1.62527e-08, No Iterations 2
DICPCG:  Solving for p, Initial residual = 0.000616821, Final residual = 8.96935e-13, No Iterations 284
Time = 599707922.64815 s = 19.0166 year  Progress = 6.33887%

ExecutionTime = 33.44 s ClockTime = 48 s

Courant Number mean: 0.00214365 max: 0.795713
deltaT = 933553
DILUPBiCG:  Solving for T, Initial residual = 0.00265348, Final residual = 1.37766e-08, No Iterations 2
DICPCG:  Solving for p, Initial residual = 0.00053231, Final residual = 9.1155e-13, No Iterations 280
Time = 600641476.04146 s = 19.0462 year  Progress = 6.34874%

ExecutionTime = 33.7 s ClockTime = 48 s

Courant Number mean: 0.00216775 max: 0.815808
deltaT = 906096
DILUPBiCG:  Solving for T, Initial residual = 0.00263578, Final residual = 2.50285e-08, No Iterations 2
DICPCG:  Solving for p, Initial residual = 0.000480866, Final residual = 9.52012e-13, No Iterations 289
Time = 601547571.98203 s = 19.0749 year  Progress = 6.35832%

ExecutionTime = 33.95 s ClockTime = 48 s

Courant Number mean: 0.00210651 max: 0.805908
deltaT = 892771
DILUPBiCG:  Solving for T, Initial residual = 0.00249378, Final residual = 2.88901e-08, No Iterations 2
DICPCG:  Solving for p, Initial residual = 0.000494093, Final residual = 8.99297e-13, No Iterations 290
Time = 602440342.98229 s = 19.1033 year  Progress = 6.36775%

ExecutionTime = 34.19 s ClockTime = 49 s

Courant Number mean: 0.00209047 max: 0.812666
deltaT = 866894
DILUPBiCG:  Solving for T, Initial residual = 0.00235115, Final residual = 2.20133e-08, No Iterations 2
DICPCG:  Solving for p, Initial residual = 0.000392315, Final residual = 9.36503e-13, No Iterations 284
Time = 603307236.56226 s = 19.1307 year  Progress = 6.37692%

ExecutionTime = 34.43 s ClockTime = 49 s

Courant Number mean: 0.00203573 max: 0.801828
deltaT = 854330
DILUPBiCG:  Solving for T, Initial residual = 0.00228237, Final residual = 2.5622e-08, No Iterations 2
DICPCG:  Solving for p, Initial residual = 0.000352206, Final residual = 8.9924e-13, No Iterations 284
Time = 604161566.46715 s = 19.1578 year  Progress = 6.38595%

ExecutionTime = 34.67 s ClockTime = 49 s

Courant Number mean: 0.00200402 max: 0.798607
deltaT = 854330
DILUPBiCG:  Solving for T, Initial residual = 0.00231582, Final residual = 1.09583e-07, No Iterations 2
DICPCG:  Solving for p, Initial residual = 0.000346347, Final residual = 9.71057e-13, No Iterations 287
Time = 605015896.37205 s = 19.1849 year  Progress = 6.39498%

ExecutionTime = 34.91 s ClockTime = 49 s

Courant Number mean: 0.00200351 max: 0.798181
deltaT = 854330
DILUPBiCG:  Solving for T, Initial residual = 0.00235015, Final residual = 3.70481e-08, No Iterations 2
DICPCG:  Solving for p, Initial residual = 0.000389325, Final residual = 9.34642e-13, No Iterations 290
Time = 605870226.27694 s = 19.212 year  Progress = 6.40401%

ExecutionTime = 35.16 s ClockTime = 50 s

Courant Number mean: 0.00203804 max: 0.793326
deltaT = 854330
DILUPBiCG:  Solving for T, Initial residual = 0.00235127, Final residual = 8.48187e-08, No Iterations 2
DICPCG:  Solving for p, Initial residual = 0.000413128, Final residual = 9.57513e-13, No Iterations 279
Time = 606724556.18184 s = 19.2391 year  Progress = 6.41304%

ExecutionTime = 35.43 s ClockTime = 50 s

Courant Number mean: 0.00205261 max: 0.806454
deltaT = 841386
DILUPBiCG:  Solving for T, Initial residual = 0.00226645, Final residual = 9.00259e-09, No Iterations 2
DICPCG:  Solving for p, Initial residual = 0.00039345, Final residual = 8.48232e-13, No Iterations 290
Time = 607565941.69423 s = 19.2658 year  Progress = 6.42193%

ExecutionTime = 35.67 s ClockTime = 50 s

Courant Number mean: 0.00200054 max: 0.819615
deltaT = 816270
DILUPBiCG:  Solving for T, Initial residual = 0.00214328, Final residual = 1.24688e-08, No Iterations 2
DICPCG:  Solving for p, Initial residual = 0.000344521, Final residual = 9.98597e-13, No Iterations 282
Time = 608382211.22118 s = 19.2917 year  Progress = 6.43056%

ExecutionTime = 35.91 s ClockTime = 50 s

Courant Number mean: 0.00196548 max: 0.805379
deltaT = 804086
DILUPBiCG:  Solving for T, Initial residual = 0.00207804, Final residual = 6.60526e-09, No Iterations 2
DICPCG:  Solving for p, Initial residual = 0.000317778, Final residual = 8.86476e-13, No Iterations 280
Time = 609186297.62087 s = 19.3172 year  Progress = 6.43906%

ExecutionTime = 36.14 s ClockTime = 51 s

Courant Number mean: 0.00198771 max: 0.801499
deltaT = 792085
DILUPBiCG:  Solving for T, Initial residual = 0.00203364, Final residual = 4.19126e-09, No Iterations 2
DICPCG:  Solving for p, Initial residual = 0.000297449, Final residual = 9.16174e-13, No Iterations 270
Time = 609978382.731 s = 19.3423 year  Progress = 6.44743%

ExecutionTime = 36.4 s ClockTime = 51 s

Courant Number mean: 0.00199991 max: 0.797013
deltaT = 792085
DILUPBiCG:  Solving for T, Initial residual = 0.0020575, Final residual = 4.22862e-09, No Iterations 2
DICPCG:  Solving for p, Initial residual = 0.000289014, Final residual = 9.54641e-13, No Iterations 270
Time = 610770467.84114 s = 19.3674 year  Progress = 6.4558%

ExecutionTime = 36.64 s ClockTime = 51 s

Courant Number mean: 0.0020301 max: 0.804621
deltaT = 780084
DILUPBiCG:  Solving for T, Initial residual = 0.00208353, Final residual = 1.62714e-08, No Iterations 2
DICPCG:  Solving for p, Initial residual = 0.00031726, Final residual = 9.79461e-13, No Iterations 278
Time = 611550551.66173 s = 19.3921 year  Progress = 6.46405%

ExecutionTime = 36.88 s ClockTime = 51 s

Courant Number mean: 0.00202688 max: 0.799319
deltaT = 780084
DILUPBiCG:  Solving for T, Initial residual = 0.0021895, Final residual = 3.15331e-08, No Iterations 2
DICPCG:  Solving for p, Initial residual = 0.000358321, Final residual = 9.11015e-13, No Iterations 272
Time = 612330635.48232 s = 19.4169 year  Progress = 6.47229%

ExecutionTime = 37.11 s ClockTime = 52 s

Courant Number mean: 0.00206197 max: 0.806756
deltaT = 768083
DILUPBiCG:  Solving for T, Initial residual = 0.00227849, Final residual = 6.98243e-09, No Iterations 2
DICPCG:  Solving for p, Initial residual = 0.000437486, Final residual = 9.83521e-13, No Iterations 287
Time = 613098718.01336 s = 19.4412 year  Progress = 6.48041%

ExecutionTime = 37.34 s ClockTime = 52 s

Courant Number mean: 0.00210575 max: 0.802431
deltaT = 756266
DILUPBiCG:  Solving for T, Initial residual = 0.00225999, Final residual = 4.84842e-09, No Iterations 2
DICPCG:  Solving for p, Initial residual = 0.000433307, Final residual = 9.70397e-13, No Iterations 271
Time = 613854983.89008 s = 19.4652 year  Progress = 6.4884%

ExecutionTime = 37.58 s ClockTime = 52 s

Courant Number mean: 0.00212356 max: 0.791849
deltaT = 756266
DILUPBiCG:  Solving for T, Initial residual = 0.00220951, Final residual = 5.35495e-09, No Iterations 2
DICPCG:  Solving for p, Initial residual = 0.000406222, Final residual = 8.40537e-13, No Iterations 286
Time = 614611249.76679 s = 19.4892 year  Progress = 6.4964%

ExecutionTime = 37.82 s ClockTime = 52 s

Courant Number mean: 0.00210031 max: 0.789443
deltaT = 756266
DILUPBiCG:  Solving for T, Initial residual = 0.00214894, Final residual = 1.10944e-08, No Iterations 2
DICPCG:  Solving for p, Initial residual = 0.000374438, Final residual = 8.75589e-13, No Iterations 287
Time = 615367515.64351 s = 19.5132 year  Progress = 6.50439%

ExecutionTime = 38.06 s ClockTime = 53 s

Courant Number mean: 0.00203823 max: 0.782138
deltaT = 768664
DILUPBiCG:  Solving for T, Initial residual = 0.0021772, Final residual = 5.93777e-09, No Iterations 2
DICPCG:  Solving for p, Initial residual = 0.000375671, Final residual = 9.07872e-13, No Iterations 287
Time = 616136179.32149 s = 19.5376 year  Progress = 6.51252%

ExecutionTime = 38.29 s ClockTime = 53 s

Courant Number mean: 0.0019831 max: 0.791359
deltaT = 768664
DILUPBiCG:  Solving for T, Initial residual = 0.00223457, Final residual = 1.70643e-08, No Iterations 2
DICPCG:  Solving for p, Initial residual = 0.00040262, Final residual = 9.19233e-13, No Iterations 288
Time = 616904842.99946 s = 19.5619 year  Progress = 6.52064%

ExecutionTime = 38.53 s ClockTime = 53 s

Courant Number mean: 0.00194384 max: 0.789882
deltaT = 768664
DILUPBiCG:  Solving for T, Initial residual = 0.00226481, Final residual = 8.37925e-09, No Iterations 2
DICPCG:  Solving for p, Initial residual = 0.000469289, Final residual = 8.67696e-13, No Iterations 285
Time = 617673506.67744 s = 19.5863 year  Progress = 6.52877%

ExecutionTime = 38.76 s ClockTime = 53 s

Courant Number mean: 0.00199216 max: 0.785942
deltaT = 782149
DILUPBiCG:  Solving for T, Initial residual = 0.00234966, Final residual = 3.39105e-08, No Iterations 2
DICPCG:  Solving for p, Initial residual = 0.000458809, Final residual = 9.95967e-13, No Iterations 280
Time = 618455655.6831 s = 19.6111 year  Progress = 6.53703%

ExecutionTime = 39.01 s ClockTime = 54 s

Courant Number mean: 0.00204065 max: 0.789566
deltaT = 782149
DILUPBiCG:  Solving for T, Initial residual = 0.00240573, Final residual = 6.61014e-11, No Iterations 3
DICPCG:  Solving for p, Initial residual = 0.000465837, Final residual = 9.65971e-13, No Iterations 288
Time = 619237804.68876 s = 19.6359 year  Progress = 6.5453%

ExecutionTime = 39.25 s ClockTime = 54 s

Courant Number mean: 0.0020515 max: 0.769371
deltaT = 811664
DILUPBiCG:  Solving for T, Initial residual = 0.00249015, Final residual = 1.11793e-08, No Iterations 2
DICPCG:  Solving for p, Initial residual = 0.000503173, Final residual = 9.8493e-13, No Iterations 284
Time = 620049468.75123 s = 19.6616 year  Progress = 6.55388%

ExecutionTime = 39.49 s ClockTime = 54 s

Courant Number mean: 0.00214748 max: 0.785535
deltaT = 811664
DILUPBiCG:  Solving for T, Initial residual = 0.00245969, Final residual = 9.74868e-08, No Iterations 2
DICPCG:  Solving for p, Initial residual = 0.000509279, Final residual = 9.63131e-13, No Iterations 285
Time = 620861132.81371 s = 19.6874 year  Progress = 6.56246%

ExecutionTime = 39.73 s ClockTime = 54 s

Courant Number mean: 0.00208715 max: 0.777996
deltaT = 827897
DILUPBiCG:  Solving for T, Initial residual = 0.00250432, Final residual = 7.15355e-08, No Iterations 2
DICPCG:  Solving for p, Initial residual = 0.000497454, Final residual = 9.91708e-13, No Iterations 287
Time = 621689030.15743 s = 19.7136 year  Progress = 6.57121%

ExecutionTime = 40 s ClockTime = 55 s

Courant Number mean: 0.00211842 max: 0.76827
deltaT = 845145
DILUPBiCG:  Solving for T, Initial residual = 0.00247289, Final residual = 1.84789e-08, No Iterations 2
DICPCG:  Solving for p, Initial residual = 0.000563657, Final residual = 9.19237e-13, No Iterations 283
Time = 622534175.36249 s = 19.7404 year  Progress = 6.58014%

ExecutionTime = 40.24 s ClockTime = 55 s

Courant Number mean: 0.00215417 max: 0.766697
deltaT = 863518
DILUPBiCG:  Solving for T, Initial residual = 0.00244352, Final residual = 4.71619e-07, No Iterations 2
DICPCG:  Solving for p, Initial residual = 0.0004869, Final residual = 9.58885e-13, No Iterations 279
Time = 623397693.28939 s = 19.7678 year  Progress = 6.58927%

ExecutionTime = 40.48 s ClockTime = 55 s

Courant Number mean: 0.00217383 max: 0.764574
deltaT = 903682
DILUPBiCG:  Solving for T, Initial residual = 0.00248055, Final residual = 1.88167e-08, No Iterations 2
DICPCG:  Solving for p, Initial residual = 0.000467963, Final residual = 9.60894e-13, No Iterations 287
Time = 624301374.8408 s = 19.7965 year  Progress = 6.59882%

ExecutionTime = 40.73 s ClockTime = 55 s

Courant Number mean: 0.00220049 max: 0.762621
deltaT = 925723
DILUPBiCG:  Solving for T, Initial residual = 0.00255042, Final residual = 1.33644e-10, No Iterations 3
DICPCG:  Solving for p, Initial residual = 0.000462769, Final residual = 9.53458e-13, No Iterations 282
Time = 625227097.40566 s = 19.8258 year  Progress = 6.60861%

ExecutionTime = 40.97 s ClockTime = 55 s

Courant Number mean: 0.00222007 max: 0.787931
deltaT = 925723
DILUPBiCG:  Solving for T, Initial residual = 0.00257074, Final residual = 2.15834e-08, No Iterations 2
DICPCG:  Solving for p, Initial residual = 0.000500623, Final residual = 9.82391e-13, No Iterations 280
Time = 626152819.97052 s = 19.8552 year  Progress = 6.61839%

ExecutionTime = 41.2 s ClockTime = 56 s

Courant Number mean: 0.00217871 max: 0.77062
deltaT = 950084
DILUPBiCG:  Solving for T, Initial residual = 0.00258407, Final residual = 2.75013e-08, No Iterations 2
DICPCG:  Solving for p, Initial residual = 0.000480297, Final residual = 8.90633e-13, No Iterations 285
Time = 627102903.6555 s = 19.8853 year  Progress = 6.62843%

ExecutionTime = 41.44 s ClockTime = 56 s

Courant Number mean: 0.00226589 max: 0.767866
deltaT = 976475
DILUPBiCG:  Solving for T, Initial residual = 0.00264883, Final residual = 4.04405e-08, No Iterations 2
DICPCG:  Solving for p, Initial residual = 0.000518641, Final residual = 9.46357e-13, No Iterations 285
Time = 628079378.55396 s = 19.9163 year  Progress = 6.63876%

ExecutionTime = 41.68 s ClockTime = 56 s

Courant Number mean: 0.00234334 max: 0.75875
deltaT = 1.00519e+06
DILUPBiCG:  Solving for T, Initial residual = 0.00275585, Final residual = 4.09364e-08, No Iterations 2
DICPCG:  Solving for p, Initial residual = 0.000562357, Final residual = 9.06803e-13, No Iterations 290
Time = 629084573.30237 s = 19.9481 year  Progress = 6.64938%

ExecutionTime = 41.91 s ClockTime = 56 s

Courant Number mean: 0.00233885 max: 0.790077
deltaT = 1.00519e+06
DILUPBiCG:  Solving for T, Initial residual = 0.00275076, Final residual = 6.3672e-08, No Iterations 2
DICPCG:  Solving for p, Initial residual = 0.000563478, Final residual = 9.92398e-13, No Iterations 286
Time = 630089768.05079 s = 19.98 year  Progress = 6.66001%

ExecutionTime = 42.16 s ClockTime = 57 s

Courant Number mean: 0.00221325 max: 0.797346
deltaT = 1.00519e+06
DILUPBiCG:  Solving for T, Initial residual = 0.00269912, Final residual = 5.79333e-08, No Iterations 2
DICPCG:  Solving for p, Initial residual = 0.000552078, Final residual = 9.07661e-13, No Iterations 289
Time = 631094962.7992 s = 20.0119 year  Progress = 6.67063%

ExecutionTime = 42.43 s ClockTime = 57 s

Courant Number mean: 0.00218223 max: 0.801147
deltaT = 973782
DILUPBiCG:  Solving for T, Initial residual = 0.0025034, Final residual = 1.62441e-08, No Iterations 2
DICPCG:  Solving for p, Initial residual = 0.000512683, Final residual = 9.45352e-13, No Iterations 289
Time = 632068745.21172 s = 20.0428 year  Progress = 6.68092%

ExecutionTime = 42.67 s ClockTime = 57 s

Courant Number mean: 0.00210414 max: 0.777987
deltaT = 973782
DILUPBiCG:  Solving for T, Initial residual = 0.00243855, Final residual = 1.46225e-08, No Iterations 2
DICPCG:  Solving for p, Initial residual = 0.000474582, Final residual = 8.78154e-13, No Iterations 277
Time = 633042527.62425 s = 20.0736 year  Progress = 6.69122%

ExecutionTime = 42.9 s ClockTime = 57 s

Courant Number mean: 0.00208102 max: 0.777395
deltaT = 973782
DILUPBiCG:  Solving for T, Initial residual = 0.00243035, Final residual = 2.83207e-08, No Iterations 2
DICPCG:  Solving for p, Initial residual = 0.000447314, Final residual = 9.87564e-13, No Iterations 284
Time = 634016310.03678 s = 20.1045 year  Progress = 6.70151%

ExecutionTime = 43.15 s ClockTime = 58 s

Courant Number mean: 0.00202256 max: 0.776137
deltaT = 973782
DILUPBiCG:  Solving for T, Initial residual = 0.00243875, Final residual = 4.52423e-08, No Iterations 2
DICPCG:  Solving for p, Initial residual = 0.000452624, Final residual = 9.6082e-13, No Iterations 296
Time = 634990092.4493 s = 20.1354 year  Progress = 6.7118%

ExecutionTime = 43.41 s ClockTime = 58 s

Courant Number mean: 0.00201619 max: 0.783101
deltaT = 973782
DILUPBiCG:  Solving for T, Initial residual = 0.00235252, Final residual = 6.4096e-08, No Iterations 2
DICPCG:  Solving for p, Initial residual = 0.000454124, Final residual = 9.80658e-13, No Iterations 295
Time = 635963874.86182 s = 20.1663 year  Progress = 6.72209%

ExecutionTime = 43.66 s ClockTime = 58 s

Courant Number mean: 0.0020537 max: 0.787943
deltaT = 973782
DILUPBiCG:  Solving for T, Initial residual = 0.00224775, Final residual = 5.86238e-08, No Iterations 2
DICPCG:  Solving for p, Initial residual = 0.000434113, Final residual = 8.92652e-13, No Iterations 291
Time = 636937657.27435 s = 20.1972 year  Progress = 6.73239%

ExecutionTime = 43.92 s ClockTime = 58 s

Courant Number mean: 0.00204292 max: 0.789425
deltaT = 973782
DILUPBiCG:  Solving for T, Initial residual = 0.0021799, Final residual = 6.49135e-08, No Iterations 2
DICPCG:  Solving for p, Initial residual = 0.000396139, Final residual = 9.2246e-13, No Iterations 285
Time = 637911439.68688 s = 20.228 year  Progress = 6.74268%

ExecutionTime = 44.19 s ClockTime = 59 s

Courant Number mean: 0.00199697 max: 0.788006
deltaT = 973782
DILUPBiCG:  Solving for T, Initial residual = 0.00215497, Final residual = 3.21015e-08, No Iterations 2
DICPCG:  Solving for p, Initial residual = 0.000368877, Final residual = 9.15952e-13, No Iterations 278
Time = 638885222.0994 s = 20.2589 year  Progress = 6.75297%

ExecutionTime = 44.44 s ClockTime = 59 s

Courant Number mean: 0.00197877 max: 0.784739
deltaT = 973782
DILUPBiCG:  Solving for T, Initial residual = 0.00213511, Final residual = 8.67738e-09, No Iterations 2
DICPCG:  Solving for p, Initial residual = 0.000380545, Final residual = 9.49612e-13, No Iterations 283
Time = 639859004.51192 s = 20.2898 year  Progress = 6.76327%

ExecutionTime = 44.72 s ClockTime = 59 s

Courant Number mean: 0.00199095 max: 0.778601
deltaT = 973782
DILUPBiCG:  Solving for T, Initial residual = 0.00207843, Final residual = 4.15475e-08, No Iterations 2
DICPCG:  Solving for p, Initial residual = 0.000425596, Final residual = 9.8574e-13, No Iterations 297
Time = 640832786.92445 s = 20.3207 year  Progress = 6.77356%

ExecutionTime = 44.97 s ClockTime = 59 s

Courant Number mean: 0.00193704 max: 0.766834
deltaT = 973782
DILUPBiCG:  Solving for T, Initial residual = 0.00203213, Final residual = 2.68201e-08, No Iterations 2
DICPCG:  Solving for p, Initial residual = 0.000377075, Final residual = 9.89518e-13, No Iterations 290
Time = 641806569.33698 s = 20.3516 year  Progress = 6.78385%

ExecutionTime = 45.25 s ClockTime = 60 s

Courant Number mean: 0.00186564 max: 0.746134
deltaT = 1.02247e+06
DILUPBiCG:  Solving for T, Initial residual = 0.00212563, Final residual = 9.39792e-09, No Iterations 2
DICPCG:  Solving for p, Initial residual = 0.000341795, Final residual = 9.15282e-13, No Iterations 283
Time = 642829040.87013 s = 20.384 year  Progress = 6.79466%

ExecutionTime = 45.52 s ClockTime = 60 s

Courant Number mean: 0.00190706 max: 0.745406
deltaT = 1.07928e+06
DILUPBiCG:  Solving for T, Initial residual = 0.00227174, Final residual = 1.88597e-08, No Iterations 2
DICPCG:  Solving for p, Initial residual = 0.000344703, Final residual = 9.86779e-13, No Iterations 290
Time = 643908316.37734 s = 20.4182 year  Progress = 6.80607%

ExecutionTime = 45.8 s ClockTime = 60 s

Courant Number mean: 0.00199069 max: 0.735586
deltaT = 1.14673e+06
DILUPBiCG:  Solving for T, Initial residual = 0.00243303, Final residual = 3.59567e-08, No Iterations 2
DICPCG:  Solving for p, Initial residual = 0.000406161, Final residual = 9.21153e-13, No Iterations 285
Time = 645055046.60376 s = 20.4546 year  Progress = 6.81819%

ExecutionTime = 46.05 s ClockTime = 61 s

Courant Number mean: 0.0020764 max: 0.77128
deltaT = 1.14673e+06
DILUPBiCG:  Solving for T, Initial residual = 0.00246971, Final residual = 1.23416e-07, No Iterations 2
DICPCG:  Solving for p, Initial residual = 0.000434086, Final residual = 9.61375e-13, No Iterations 282
Time = 646201776.83017 s = 20.4909 year  Progress = 6.83031%

ExecutionTime = 46.29 s ClockTime = 61 s

Courant Number mean: 0.00203602 max: 0.779658
deltaT = 1.14673e+06
DILUPBiCG:  Solving for T, Initial residual = 0.00245513, Final residual = 1.69337e-07, No Iterations 2
DICPCG:  Solving for p, Initial residual = 0.0004439, Final residual = 9.52526e-13, No Iterations 288
Time = 647348507.05659 s = 20.5273 year  Progress = 6.84243%

ExecutionTime = 46.56 s ClockTime = 61 s

Courant Number mean: 0.00205799 max: 0.783508
deltaT = 1.14673e+06
DILUPBiCG:  Solving for T, Initial residual = 0.00238336, Final residual = 4.65847e-08, No Iterations 2
DICPCG:  Solving for p, Initial residual = 0.00048754, Final residual = 9.33258e-13, No Iterations 285
Time = 648495237.28301 s = 20.5636 year  Progress = 6.85455%

ExecutionTime = 46.81 s ClockTime = 61 s

Courant Number mean: 0.00204478 max: 0.785105
deltaT = 1.14673e+06
DILUPBiCG:  Solving for T, Initial residual = 0.00228976, Final residual = 1.33579e-07, No Iterations 2
DICPCG:  Solving for p, Initial residual = 0.000429507, Final residual = 9.02322e-13, No Iterations 294
Time = 649641967.50942 s = 20.6 year  Progress = 6.86667%

ExecutionTime = 47.06 s ClockTime = 62 s

Courant Number mean: 0.00206454 max: 0.794433
deltaT = 1.14673e+06
DILUPBiCG:  Solving for T, Initial residual = 0.00216554, Final residual = 2.25224e-08, No Iterations 2
DICPCG:  Solving for p, Initial residual = 0.00046559, Final residual = 8.61454e-13, No Iterations 301
Time = 650788697.73584 s = 20.6364 year  Progress = 6.87879%

ExecutionTime = 47.32 s ClockTime = 62 s

Courant Number mean: 0.00200626 max: 0.812497
deltaT = 1.04248e+06
DILUPBiCG:  Solving for T, Initial residual = 0.001839, Final residual = 9.10988e-09, No Iterations 2
DICPCG:  Solving for p, Initial residual = 0.000395272, Final residual = 9.85065e-13, No Iterations 294
Time = 651831179.75985 s = 20.6694 year  Progress = 6.88981%

ExecutionTime = 47.58 s ClockTime = 62 s

Courant Number mean: 0.00170399 max: 0.743676
deltaT = 1.04248e+06
DILUPBiCG:  Solving for T, Initial residual = 0.00174892, Final residual = 6.21225e-09, No Iterations 2
DICPCG:  Solving for p, Initial residual = 0.00030164, Final residual = 9.40078e-13, No Iterations 281
Time = 652873661.78387 s = 20.7025 year  Progress = 6.90083%

ExecutionTime = 47.83 s ClockTime = 62 s

Courant Number mean: 0.00161845 max: 0.7515
deltaT = 1.04248e+06
DILUPBiCG:  Solving for T, Initial residual = 0.00168193, Final residual = 3.07929e-09, No Iterations 2
DICPCG:  Solving for p, Initial residual = 0.000266306, Final residual = 9.28531e-13, No Iterations 281
Time = 653916143.80788 s = 20.7355 year  Progress = 6.91185%

ExecutionTime = 48.08 s ClockTime = 63 s

Courant Number mean: 0.00155982 max: 0.756287
deltaT = 1.04248e+06
DILUPBiCG:  Solving for T, Initial residual = 0.00163448, Final residual = 2.85106e-09, No Iterations 2
DICPCG:  Solving for p, Initial residual = 0.000246482, Final residual = 9.93201e-13, No Iterations 278
Time = 654958625.8319 s = 20.7686 year  Progress = 6.92287%

ExecutionTime = 48.36 s ClockTime = 63 s

Courant Number mean: 0.00152154 max: 0.765105
deltaT = 1.04248e+06
DILUPBiCG:  Solving for T, Initial residual = 0.0016005, Final residual = 5.59755e-09, No Iterations 2
DICPCG:  Solving for p, Initial residual = 0.000231283, Final residual = 9.60869e-13, No Iterations 284
Time = 656001107.85591 s = 20.8017 year  Progress = 6.93389%

ExecutionTime = 48.62 s ClockTime = 63 s

Courant Number mean: 0.00150172 max: 0.775682
deltaT = 1.04248e+06
DILUPBiCG:  Solving for T, Initial residual = 0.00157227, Final residual = 1.01059e-08, No Iterations 2
DICPCG:  Solving for p, Initial residual = 0.000221748, Final residual = 9.74828e-13, No Iterations 285
Time = 657043589.87993 s = 20.8347 year  Progress = 6.94491%

ExecutionTime = 48.87 s ClockTime = 63 s

Courant Number mean: 0.00149552 max: 0.784571
deltaT = 1.04248e+06
DILUPBiCG:  Solving for T, Initial residual = 0.00155424, Final residual = 1.61717e-08, No Iterations 2
DICPCG:  Solving for p, Initial residual = 0.000210253, Final residual = 9.85881e-13, No Iterations 279
Time = 658086071.90394 s = 20.8678 year  Progress = 6.95592%

ExecutionTime = 49.12 s ClockTime = 64 s

Courant Number mean: 0.00149532 max: 0.77889
deltaT = 1.04248e+06
DILUPBiCG:  Solving for T, Initial residual = 0.00154156, Final residual = 1.25671e-08, No Iterations 2
DICPCG:  Solving for p, Initial residual = 0.000200777, Final residual = 8.57559e-13, No Iterations 282
Time = 659128553.92796 s = 20.9008 year  Progress = 6.96694%

ExecutionTime = 49.37 s ClockTime = 64 s

Courant Number mean: 0.00149484 max: 0.757661
deltaT = 1.04248e+06
DILUPBiCG:  Solving for T, Initial residual = 0.00152397, Final residual = 1.95157e-08, No Iterations 2
DICPCG:  Solving for p, Initial residual = 0.000202282, Final residual = 9.94625e-13, No Iterations 285
Time = 660171035.95197 s = 20.9339 year  Progress = 6.97796%

ExecutionTime = 49.63 s ClockTime = 64 s

Courant Number mean: 0.0014915 max: 0.733423
deltaT = 1.04248e+06
DILUPBiCG:  Solving for T, Initial residual = 0.00151235, Final residual = 7.00158e-07, No Iterations 2
DICPCG:  Solving for p, Initial residual = 0.000208092, Final residual = 9.07156e-13, No Iterations 281
Time = 661213517.97599 s = 20.9669 year  Progress = 6.98898%

ExecutionTime = 49.88 s ClockTime = 64 s

Courant Number mean: 0.00148729 max: 0.737774
deltaT = 1.04248e+06
DILUPBiCG:  Solving for T, Initial residual = 0.00150613, Final residual = 6.53395e-09, No Iterations 2
DICPCG:  Solving for p, Initial residual = 0.000232415, Final residual = 8.85612e-13, No Iterations 290
Time = 662256000 s = 21 year  Progress = 7%

ExecutionTime = 50.17 s ClockTime = 65 s

Courant Number mean: 0.00147601 max: 0.699061
deltaT = 1.15376e+06
DILUPBiCG:  Solving for T, Initial residual = 0.00163679, Final residual = 8.5164e-09, No Iterations 2
DICPCG:  Solving for p, Initial residual = 0.00021834, Final residual = 8.76498e-13, No Iterations 281
Time = 663409756.09756 s = 21.0366 year  Progress = 7.0122%

ExecutionTime = 50.44 s ClockTime = 65 s

Courant Number mean: 0.00162057 max: 0.729045
deltaT = 1.2629e+06
DILUPBiCG:  Solving for T, Initial residual = 0.00175499, Final residual = 2.43453e-08, No Iterations 2
DICPCG:  Solving for p, Initial residual = 0.000234819, Final residual = 9.98176e-13, No Iterations 280
Time = 664672651.28543 s = 21.0766 year  Progress = 7.02554%

ExecutionTime = 50.7 s ClockTime = 65 s

Courant Number mean: 0.00175412 max: 0.797503
deltaT = 1.2629e+06
DILUPBiCG:  Solving for T, Initial residual = 0.0017079, Final residual = 7.98658e-09, No Iterations 2
DICPCG:  Solving for p, Initial residual = 0.000243459, Final residual = 9.22382e-13, No Iterations 274
Time = 665935546.4733 s = 21.1167 year  Progress = 7.03889%

ExecutionTime = 50.98 s ClockTime = 66 s

Courant Number mean: 0.00173207 max: 0.802975
deltaT = 1.2456e+06
DILUPBiCG:  Solving for T, Initial residual = 0.00165091, Final residual = 3.05174e-08, No Iterations 2
DICPCG:  Solving for p, Initial residual = 0.000227854, Final residual = 9.73491e-13, No Iterations 278
Time = 667181141.72709 s = 21.1562 year  Progress = 7.05206%

ExecutionTime = 51.25 s ClockTime = 66 s

Courant Number mean: 0.00168784 max: 0.803007
deltaT = 1.22853e+06
DILUPBiCG:  Solving for T, Initial residual = 0.00159727, Final residual = 7.01233e-08, No Iterations 2
DICPCG:  Solving for p, Initial residual = 0.000215641, Final residual = 9.76156e-13, No Iterations 281
Time = 668409674.0322 s = 21.1951 year  Progress = 7.06504%

ExecutionTime = 51.52 s ClockTime = 66 s

Courant Number mean: 0.00164429 max: 0.800122
deltaT = 1.2117e+06
DILUPBiCG:  Solving for T, Initial residual = 0.00153258, Final residual = 3.7531e-08, No Iterations 2
DICPCG:  Solving for p, Initial residual = 0.000205087, Final residual = 8.61706e-13, No Iterations 278
Time = 669621377.12765 s = 21.2336 year  Progress = 7.07785%

ExecutionTime = 51.8 s ClockTime = 66 s

Courant Number mean: 0.0016009 max: 0.784403
deltaT = 1.22877e+06
DILUPBiCG:  Solving for T, Initial residual = 0.00151062, Final residual = 3.01425e-08, No Iterations 2
DICPCG:  Solving for p, Initial residual = 0.000189811, Final residual = 9.56451e-13, No Iterations 281
Time = 670850146.46388 s = 21.2725 year  Progress = 7.09084%

ExecutionTime = 52.07 s ClockTime = 67 s

Courant Number mean: 0.00160634 max: 0.793653
deltaT = 1.22877e+06
DILUPBiCG:  Solving for T, Initial residual = 0.0014781, Final residual = 2.1019e-08, No Iterations 2
DICPCG:  Solving for p, Initial residual = 0.000187683, Final residual = 9.26014e-13, No Iterations 277
Time = 672078915.80011 s = 21.3115 year  Progress = 7.10383%

ExecutionTime = 52.33 s ClockTime = 67 s

Courant Number mean: 0.00159557 max: 0.804801
deltaT = 1.21122e+06
DILUPBiCG:  Solving for T, Initial residual = 0.00143726, Final residual = 1.45984e-08, No Iterations 2
DICPCG:  Solving for p, Initial residual = 0.000186409, Final residual = 8.32628e-13, No Iterations 270
Time = 673290131.28868 s = 21.3499 year  Progress = 7.11663%

ExecutionTime = 52.58 s ClockTime = 67 s

Courant Number mean: 0.00156883 max: 0.815451
deltaT = 1.1771e+06
DILUPBiCG:  Solving for T, Initial residual = 0.0013737, Final residual = 5.43195e-09, No Iterations 2
DICPCG:  Solving for p, Initial residual = 0.000186245, Final residual = 9.55623e-13, No Iterations 269
Time = 674467228.03109 s = 21.3872 year  Progress = 7.12907%

ExecutionTime = 52.83 s ClockTime = 67 s

Courant Number mean: 0.00152533 max: 0.815667
deltaT = 1.1444e+06
DILUPBiCG:  Solving for T, Initial residual = 0.00130896, Final residual = 7.5527e-09, No Iterations 2
DICPCG:  Solving for p, Initial residual = 0.000182209, Final residual = 8.88421e-13, No Iterations 275
Time = 675611627.64177 s = 21.4235 year  Progress = 7.14117%

ExecutionTime = 53.08 s ClockTime = 68 s

Courant Number mean: 0.00148256 max: 0.804881
deltaT = 1.12851e+06
DILUPBiCG:  Solving for T, Initial residual = 0.00128548, Final residual = 9.15317e-09, No Iterations 2
DICPCG:  Solving for p, Initial residual = 0.000176154, Final residual = 9.06474e-13, No Iterations 270
Time = 676740132.81342 s = 21.4593 year  Progress = 7.1531%

ExecutionTime = 53.35 s ClockTime = 68 s

Courant Number mean: 0.00145855 max: 0.793677
deltaT = 1.12851e+06
DILUPBiCG:  Solving for T, Initial residual = 0.00129499, Final residual = 1.28591e-08, No Iterations 2
DICPCG:  Solving for p, Initial residual = 0.000179163, Final residual = 9.68144e-13, No Iterations 271
Time = 677868637.98506 s = 21.4951 year  Progress = 7.16502%

ExecutionTime = 53.63 s ClockTime = 68 s

Courant Number mean: 0.00145469 max: 0.789088
deltaT = 1.12851e+06
DILUPBiCG:  Solving for T, Initial residual = 0.00128854, Final residual = 9.84454e-07, No Iterations 1
DICPCG:  Solving for p, Initial residual = 0.000205878, Final residual = 9.34426e-13, No Iterations 279
Time = 678997143.1567 s = 21.5309 year  Progress = 7.17695%

ExecutionTime = 53.89 s ClockTime = 68 s

Courant Number mean: 0.00146037 max: 0.784798
deltaT = 1.1451e+06
DILUPBiCG:  Solving for T, Initial residual = 0.00128634, Final residual = 8.8869e-09, No Iterations 2
DICPCG:  Solving for p, Initial residual = 0.000201361, Final residual = 9.89369e-13, No Iterations 287
Time = 680142243.99263 s = 21.5672 year  Progress = 7.18906%

ExecutionTime = 54.17 s ClockTime = 69 s

Courant Number mean: 0.00148395 max: 0.793728
deltaT = 1.1451e+06
DILUPBiCG:  Solving for T, Initial residual = 0.00127103, Final residual = 7.33523e-09, No Iterations 2
DICPCG:  Solving for p, Initial residual = 0.000186344, Final residual = 9.92264e-13, No Iterations 283
Time = 681287344.82856 s = 21.6035 year  Progress = 7.20116%

ExecutionTime = 54.44 s ClockTime = 69 s

Courant Number mean: 0.00148626 max: 0.79386
deltaT = 1.1451e+06
DILUPBiCG:  Solving for T, Initial residual = 0.00126416, Final residual = 7.13382e-09, No Iterations 2
DICPCG:  Solving for p, Initial residual = 0.000177545, Final residual = 8.96771e-13, No Iterations 279
Time = 682432445.66449 s = 21.6398 year  Progress = 7.21326%

ExecutionTime = 54.69 s ClockTime = 69 s

Courant Number mean: 0.00148719 max: 0.797821
deltaT = 1.1451e+06
DILUPBiCG:  Solving for T, Initial residual = 0.00125968, Final residual = 1.74707e-08, No Iterations 2
DICPCG:  Solving for p, Initial residual = 0.000173222, Final residual = 9.70531e-13, No Iterations 283
Time = 683577546.50042 s = 21.6761 year  Progress = 7.22537%

ExecutionTime = 54.96 s ClockTime = 70 s

Courant Number mean: 0.00148526 max: 0.80647
deltaT = 1.12748e+06
DILUPBiCG:  Solving for T, Initial residual = 0.00124129, Final residual = 3.9903e-08, No Iterations 2
DICPCG:  Solving for p, Initial residual = 0.000178377, Final residual = 9.73261e-13, No Iterations 289
Time = 684705030.40042 s = 21.7119 year  Progress = 7.23728%

ExecutionTime = 55.22 s ClockTime = 70 s

Courant Number mean: 0.00145948 max: 0.806305
deltaT = 1.11014e+06
DILUPBiCG:  Solving for T, Initial residual = 0.00124468, Final residual = 4.8287e-08, No Iterations 2
DICPCG:  Solving for p, Initial residual = 0.000191777, Final residual = 9.34938e-13, No Iterations 289
Time = 685815168.39426 s = 21.7471 year  Progress = 7.24902%

ExecutionTime = 55.47 s ClockTime = 70 s

Courant Number mean: 0.00143773 max: 0.804777
deltaT = 1.09306e+06
DILUPBiCG:  Solving for T, Initial residual = 0.00124437, Final residual = 1.77017e-08, No Iterations 2
DICPCG:  Solving for p, Initial residual = 0.000217171, Final residual = 9.88456e-13, No Iterations 282
Time = 686908227.34204 s = 21.7817 year  Progress = 7.26057%

ExecutionTime = 55.73 s ClockTime = 70 s

Courant Number mean: 0.00141563 max: 0.793198
deltaT = 1.09306e+06
DILUPBiCG:  Solving for T, Initial residual = 0.00125353, Final residual = 9.25815e-09, No Iterations 2
DICPCG:  Solving for p, Initial residual = 0.000227707, Final residual = 9.63631e-13, No Iterations 285
Time = 688001286.28982 s = 21.8164 year  Progress = 7.27213%

ExecutionTime = 56 s ClockTime = 71 s

Courant Number mean: 0.00140403 max: 0.787398
deltaT = 1.11069e+06
DILUPBiCG:  Solving for T, Initial residual = 0.00133045, Final residual = 1.04155e-08, No Iterations 2
DICPCG:  Solving for p, Initial residual = 0.00024317, Final residual = 8.98078e-13, No Iterations 297
Time = 689111975.22063 s = 21.8516 year  Progress = 7.28387%

ExecutionTime = 56.31 s ClockTime = 71 s

Courant Number mean: 0.00145322 max: 0.79745
deltaT = 1.11069e+06
DILUPBiCG:  Solving for T, Initial residual = 0.00130398, Final residual = 1.2545e-08, No Iterations 2
DICPCG:  Solving for p, Initial residual = 0.000326296, Final residual = 9.90234e-13, No Iterations 289
Time = 690222664.15144 s = 21.8868 year  Progress = 7.29561%

ExecutionTime = 56.58 s ClockTime = 71 s

Courant Number mean: 0.00147909 max: 0.797267
deltaT = 1.11069e+06
DILUPBiCG:  Solving for T, Initial residual = 0.00124465, Final residual = 7.8566e-09, No Iterations 2
DICPCG:  Solving for p, Initial residual = 0.000285555, Final residual = 9.86986e-13, No Iterations 302
Time = 691333353.08225 s = 21.922 year  Progress = 7.30735%

ExecutionTime = 56.83 s ClockTime = 71 s

Courant Number mean: 0.00142272 max: 0.806788
deltaT = 1.09218e+06
DILUPBiCG:  Solving for T, Initial residual = 0.00117818, Final residual = 1.4754e-08, No Iterations 2
DICPCG:  Solving for p, Initial residual = 0.000244691, Final residual = 9.89121e-13, No Iterations 291
Time = 692425530.53088 s = 21.9567 year  Progress = 7.31889%

ExecutionTime = 57.1 s ClockTime = 72 s

Courant Number mean: 0.0013466 max: 0.81077
deltaT = 1.07397e+06
DILUPBiCG:  Solving for T, Initial residual = 0.0011339, Final residual = 4.26434e-08, No Iterations 2
DICPCG:  Solving for p, Initial residual = 0.000212551, Final residual = 8.88497e-13, No Iterations 292
Time = 693499505.02203 s = 21.9907 year  Progress = 7.33024%

ExecutionTime = 57.35 s ClockTime = 72 s

Courant Number mean: 0.00130698 max: 0.823073
deltaT = 1.03876e+06
DILUPBiCG:  Solving for T, Initial residual = 0.00108027, Final residual = 3.20613e-09, No Iterations 2
DICPCG:  Solving for p, Initial residual = 0.000194194, Final residual = 9.78549e-13, No Iterations 285
Time = 694538267.23478 s = 22.0237 year  Progress = 7.34122%

ExecutionTime = 57.6 s ClockTime = 72 s

Courant Number mean: 0.00126606 max: 0.819196
deltaT = 1.00525e+06
DILUPBiCG:  Solving for T, Initial residual = 0.00103534, Final residual = 7.47979e-07, No Iterations 1
DICPCG:  Solving for p, Initial residual = 0.0001768, Final residual = 9.12951e-13, No Iterations 284
Time = 695543520.98906 s = 22.0555 year  Progress = 7.35185%

ExecutionTime = 57.84 s ClockTime = 72 s

Courant Number mean: 0.00123036 max: 0.796632
deltaT = 1.00525e+06
DILUPBiCG:  Solving for T, Initial residual = 0.00102581, Final residual = 5.61071e-07, No Iterations 1
DICPCG:  Solving for p, Initial residual = 0.000158611, Final residual = 9.07331e-13, No Iterations 283
Time = 696548774.74334 s = 22.0874 year  Progress = 7.36247%

ExecutionTime = 58.15 s ClockTime = 73 s

Courant Number mean: 0.00123275 max: 0.784572
deltaT = 1.02229e+06
DILUPBiCG:  Solving for T, Initial residual = 0.00102894, Final residual = 6.70109e-07, No Iterations 1
DICPCG:  Solving for p, Initial residual = 0.000148852, Final residual = 9.43618e-13, No Iterations 281
Time = 697571066.69684 s = 22.1198 year  Progress = 7.37328%

ExecutionTime = 58.4 s ClockTime = 73 s

Courant Number mean: 0.0012547 max: 0.780501
deltaT = 1.04023e+06
DILUPBiCG:  Solving for T, Initial residual = 0.00103684, Final residual = 8.53072e-07, No Iterations 1
DICPCG:  Solving for p, Initial residual = 0.00014636, Final residual = 9.56219e-13, No Iterations 278
Time = 698611293.59689 s = 22.1528 year  Progress = 7.38427%

ExecutionTime = 58.65 s ClockTime = 73 s

Courant Number mean: 0.00127735 max: 0.777091
deltaT = 1.05914e+06
DILUPBiCG:  Solving for T, Initial residual = 0.00105461, Final residual = 9.87083e-07, No Iterations 1
DICPCG:  Solving for p, Initial residual = 0.000149839, Final residual = 9.49653e-13, No Iterations 283
Time = 699670433.71331 s = 22.1864 year  Progress = 7.39547%

ExecutionTime = 58.91 s ClockTime = 73 s

Courant Number mean: 0.00129878 max: 0.77987
deltaT = 1.07912e+06
DILUPBiCG:  Solving for T, Initial residual = 0.00106931, Final residual = 8.00365e-07, No Iterations 1
DICPCG:  Solving for p, Initial residual = 0.000156165, Final residual = 9.52577e-13, No Iterations 295
Time = 700749557.60552 s = 22.2206 year  Progress = 7.40687%

ExecutionTime = 59.22 s ClockTime = 74 s

Courant Number mean: 0.00131607 max: 0.798462
deltaT = 1.07912e+06
DILUPBiCG:  Solving for T, Initial residual = 0.0010678, Final residual = 9.0024e-07, No Iterations 1
DICPCG:  Solving for p, Initial residual = 0.000170721, Final residual = 9.76681e-13, No Iterations 280
Time = 701828681.49772 s = 22.2548 year  Progress = 7.41828%

ExecutionTime = 59.5 s ClockTime = 74 s

Courant Number mean: 0.00131088 max: 0.777613
deltaT = 1.10071e+06
DILUPBiCG:  Solving for T, Initial residual = 0.00110266, Final residual = 7.29452e-07, No Iterations 1
DICPCG:  Solving for p, Initial residual = 0.000205138, Final residual = 9.88694e-13, No Iterations 291
Time = 702929387.86776 s = 22.2897 year  Progress = 7.42991%

ExecutionTime = 59.77 s ClockTime = 74 s

Courant Number mean: 0.00132244 max: 0.690896
deltaT = 1.22579e+06
DILUPBiCG:  Solving for T, Initial residual = 0.00121249, Final residual = 8.14437e-07, No Iterations 1
DICPCG:  Solving for p, Initial residual = 0.000180376, Final residual = 9.55091e-13, No Iterations 275
Time = 704155174.50713 s = 22.3286 year  Progress = 7.44287%

ExecutionTime = 1.00017 m ClockTime = 1.25 m

Courant Number mean: 0.00145583 max: 0.685173
deltaT = 1.35151e+06
DILUPBiCG:  Solving for T, Initial residual = 0.00132188, Final residual = 5.30641e-09, No Iterations 2
DICPCG:  Solving for p, Initial residual = 0.000190876, Final residual = 9.32315e-13, No Iterations 283
Time = 705506682.8531 s = 22.3715 year  Progress = 7.45716%

ExecutionTime = 1.00417 m ClockTime = 1.25 m

Courant Number mean: 0.00158441 max: 0.665707
deltaT = 1.51051e+06
DILUPBiCG:  Solving for T, Initial residual = 0.00145909, Final residual = 9.98178e-09, No Iterations 2
DICPCG:  Solving for p, Initial residual = 0.000197537, Final residual = 9.33985e-13, No Iterations 276
Time = 707017192.18095 s = 22.4194 year  Progress = 7.47312%

ExecutionTime = 1.0095 m ClockTime = 1.25 m

Courant Number mean: 0.00174946 max: 0.640348
deltaT = 1.66156e+06
DILUPBiCG:  Solving for T, Initial residual = 0.00158769, Final residual = 4.20096e-08, No Iterations 2
DICPCG:  Solving for p, Initial residual = 0.000212752, Final residual = 8.84634e-13, No Iterations 279
Time = 708678752.44159 s = 22.4721 year  Progress = 7.49069%

ExecutionTime = 1.0135 m ClockTime = 1.25 m

Courant Number mean: 0.00190107 max: 0.576714
deltaT = 1.85328e+06
DILUPBiCG:  Solving for T, Initial residual = 0.00175032, Final residual = 4.05153e-10, No Iterations 3
DICPCG:  Solving for p, Initial residual = 0.000231053, Final residual = 9.77257e-13, No Iterations 282
Time = 710532031.19384 s = 22.5308 year  Progress = 7.51027%

ExecutionTime = 1.01783 m ClockTime = 1.26667 m

Courant Number mean: 0.00209342 max: 0.452277
deltaT = 2.106e+06
DILUPBiCG:  Solving for T, Initial residual = 0.00197286, Final residual = 5.42484e-07, No Iterations 2
DICPCG:  Solving for p, Initial residual = 0.000263051, Final residual = 9.43076e-13, No Iterations 291
Time = 712638029.77593 s = 22.5976 year  Progress = 7.53253%

ExecutionTime = 1.02233 m ClockTime = 1.26667 m

Courant Number mean: 0.00235806 max: 0.342736
deltaT = 2.457e+06
DILUPBiCG:  Solving for T, Initial residual = 0.00225533, Final residual = 1.82659e-07, No Iterations 2
DICPCG:  Solving for p, Initial residual = 0.000342812, Final residual = 8.94678e-13, No Iterations 287
Time = 715095028.12171 s = 22.6755 year  Progress = 7.5585%

ExecutionTime = 1.0265 m ClockTime = 1.26667 m

Courant Number mean: 0.00271194 max: 0.418635
deltaT = 2.7846e+06
[...]
DICPCG:  Solving for p, Initial residual = 0.000258242, Final residual = 9.15692e-13, No Iterations 285
Time = 7494980662.0666 s = 237.664 year  Progress = 79.2214%

ExecutionTime = 23.5598 m ClockTime = 23.8333 m

Courant Number mean: 0.013683 max: 0.797121
deltaT = 1.33926e+06
DILUPBiCG:  Solving for T, Initial residual = 0.000512802, Final residual = 9.21842e-07, No Iterations 1
DICPCG:  Solving for p, Initial residual = 0.000258005, Final residual = 9.24266e-13, No Iterations 288
Time = 7496319922.7563 s = 237.707 year  Progress = 79.2356%

ExecutionTime = 23.5648 m ClockTime = 23.85 m

Courant Number mean: 0.0136928 max: 0.807774
deltaT = 1.31491e+06
DILUPBiCG:  Solving for T, Initial residual = 0.000499989, Final residual = 9.37058e-08, No Iterations 2
DICPCG:  Solving for p, Initial residual = 0.0002589, Final residual = 9.38603e-13, No Iterations 286
Time = 7497634833.2517 s = 237.748 year  Progress = 79.2495%

ExecutionTime = 23.5698 m ClockTime = 23.85 m

Courant Number mean: 0.0134524 max: 0.807081
deltaT = 1.291e+06
DILUPBiCG:  Solving for T, Initial residual = 0.000487722, Final residual = 2.5267e-07, No Iterations 2
DICPCG:  Solving for p, Initial residual = 0.000252251, Final residual = 9.76394e-13, No Iterations 279
Time = 7498925836.2835 s = 237.789 year  Progress = 79.2631%

ExecutionTime = 23.575 m ClockTime = 23.85 m

Courant Number mean: 0.0132093 max: 0.809111
deltaT = 1.26753e+06
DILUPBiCG:  Solving for T, Initial residual = 0.00047722, Final residual = 3.66194e-08, No Iterations 2
DICPCG:  Solving for p, Initial residual = 0.000237567, Final residual = 9.07115e-13, No Iterations 285
Time = 7500193366.5328 s = 237.83 year  Progress = 79.2765%

ExecutionTime = 23.5802 m ClockTime = 23.85 m

Courant Number mean: 0.0129674 max: 0.813826
deltaT = 1.24448e+06
DILUPBiCG:  Solving for T, Initial residual = 0.000469888, Final residual = 8.16281e-07, No Iterations 1
DICPCG:  Solving for p, Initial residual = 0.000236083, Final residual = 9.56227e-13, No Iterations 287
Time = 7501437850.7777 s = 237.869 year  Progress = 79.2897%

ExecutionTime = 23.5855 m ClockTime = 23.8667 m

Courant Number mean: 0.0127351 max: 0.82102
deltaT = 1.20004e+06
DILUPBiCG:  Solving for T, Initial residual = 0.000455342, Final residual = 6.36104e-07, No Iterations 1
DICPCG:  Solving for p, Initial residual = 0.000246776, Final residual = 9.81235e-13, No Iterations 280
Time = 7502637889.1567 s = 237.907 year  Progress = 79.3024%

ExecutionTime = 23.5905 m ClockTime = 23.8667 m

Courant Number mean: 0.0122831 max: 0.814787
deltaT = 1.15793e+06
DILUPBiCG:  Solving for T, Initial residual = 0.000438323, Final residual = 5.42494e-07, No Iterations 1
DICPCG:  Solving for p, Initial residual = 0.000240526, Final residual = 9.5691e-13, No Iterations 287
Time = 7503795820.9259 s = 237.944 year  Progress = 79.3146%

ExecutionTime = 23.5955 m ClockTime = 23.8667 m

Courant Number mean: 0.011849 max: 0.806848
deltaT = 1.13762e+06
DILUPBiCG:  Solving for T, Initial residual = 0.000430955, Final residual = 7.70229e-07, No Iterations 1
DICPCG:  Solving for p, Initial residual = 0.000230389, Final residual = 8.51612e-13, No Iterations 287
Time = 7504933438.1026 s = 237.98 year  Progress = 79.3266%

ExecutionTime = 23.6007 m ClockTime = 23.8833 m

Courant Number mean: 0.011637 max: 0.809863
deltaT = 1.11766e+06
DILUPBiCG:  Solving for T, Initial residual = 0.000424425, Final residual = 8.89272e-07, No Iterations 1
DICPCG:  Solving for p, Initial residual = 0.000226897, Final residual = 9.67651e-13, No Iterations 286
Time = 7506051097.0832 s = 238.015 year  Progress = 79.3384%

ExecutionTime = 23.6057 m ClockTime = 23.8833 m

Courant Number mean: 0.0114283 max: 0.807825
deltaT = 1.09805e+06
DILUPBiCG:  Solving for T, Initial residual = 0.000420187, Final residual = 9.16933e-07, No Iterations 1
DICPCG:  Solving for p, Initial residual = 0.000226893, Final residual = 9.81983e-13, No Iterations 288
Time = 7507149148.0116 s = 238.05 year  Progress = 79.35%

ExecutionTime = 23.611 m ClockTime = 23.8833 m

Courant Number mean: 0.0112243 max: 0.800497
deltaT = 1.07879e+06
DILUPBiCG:  Solving for T, Initial residual = 0.000415414, Final residual = 7.2598e-07, No Iterations 1
DICPCG:  Solving for p, Initial residual = 0.000226482, Final residual = 8.88183e-13, No Iterations 281
Time = 7508227934.8886 s = 238.084 year  Progress = 79.3614%

ExecutionTime = 23.6165 m ClockTime = 23.9 m

Courant Number mean: 0.0110351 max: 0.790139
deltaT = 1.07879e+06
DILUPBiCG:  Solving for T, Initial residual = 0.000416018, Final residual = 7.56908e-07, No Iterations 1
DICPCG:  Solving for p, Initial residual = 0.000214158, Final residual = 9.25731e-13, No Iterations 284
Time = 7509306721.7656 s = 238.119 year  Progress = 79.3729%

ExecutionTime = 23.6217 m ClockTime = 23.9 m

Courant Number mean: 0.0110523 max: 0.793552
deltaT = 1.07879e+06
DILUPBiCG:  Solving for T, Initial residual = 0.000416343, Final residual = 8.24211e-07, No Iterations 1
DICPCG:  Solving for p, Initial residual = 0.000204956, Final residual = 9.16342e-13, No Iterations 285
Time = 7510385508.6426 s = 238.153 year  Progress = 79.3843%

ExecutionTime = 23.6268 m ClockTime = 23.9 m

Courant Number mean: 0.0110663 max: 0.798677
deltaT = 1.07879e+06
DILUPBiCG:  Solving for T, Initial residual = 0.000418078, Final residual = 8.53557e-07, No Iterations 1
DICPCG:  Solving for p, Initial residual = 0.000203412, Final residual = 8.80468e-13, No Iterations 283
Time = 7511464295.5196 s = 238.187 year  Progress = 79.3957%

ExecutionTime = 23.6322 m ClockTime = 23.9167 m

Courant Number mean: 0.0110769 max: 0.806529
deltaT = 1.05881e+06
DILUPBiCG:  Solving for T, Initial residual = 0.00041138, Final residual = 3.22156e-09, No Iterations 2
DICPCG:  Solving for p, Initial residual = 0.000209596, Final residual = 8.96243e-13, No Iterations 284
Time = 7512523104.8618 s = 238.221 year  Progress = 79.4068%

ExecutionTime = 23.6372 m ClockTime = 23.9167 m

Courant Number mean: 0.0108794 max: 0.798768
deltaT = 1.05881e+06
DILUPBiCG:  Solving for T, Initial residual = 0.000410542, Final residual = 2.00587e-09, No Iterations 2
DICPCG:  Solving for p, Initial residual = 0.000209857, Final residual = 9.28699e-13, No Iterations 283
Time = 7513581914.204 s = 238.254 year  Progress = 79.418%

ExecutionTime = 23.6423 m ClockTime = 23.9167 m

Courant Number mean: 0.0108834 max: 0.80182
deltaT = 1.03883e+06
DILUPBiCG:  Solving for T, Initial residual = 0.000402349, Final residual = 6.37278e-07, No Iterations 1
DICPCG:  Solving for p, Initial residual = 0.000208872, Final residual = 9.21489e-13, No Iterations 285
Time = 7514620746.0115 s = 238.287 year  Progress = 79.429%

ExecutionTime = 23.6475 m ClockTime = 23.9333 m

Courant Number mean: 0.0106788 max: 0.786908
deltaT = 1.03883e+06
DILUPBiCG:  Solving for T, Initial residual = 0.000402624, Final residual = 6.86655e-07, No Iterations 1
DICPCG:  Solving for p, Initial residual = 0.00020374, Final residual = 8.96352e-13, No Iterations 284
Time = 7515659577.819 s = 238.32 year  Progress = 79.44%

ExecutionTime = 23.6527 m ClockTime = 23.9333 m

Courant Number mean: 0.0106787 max: 0.787557
deltaT = 1.03883e+06
DILUPBiCG:  Solving for T, Initial residual = 0.000403042, Final residual = 7.32399e-07, No Iterations 1
DICPCG:  Solving for p, Initial residual = 0.000205996, Final residual = 9.52971e-13, No Iterations 285
Time = 7516698409.6264 s = 238.353 year  Progress = 79.451%

ExecutionTime = 23.6577 m ClockTime = 23.9333 m

Courant Number mean: 0.0106797 max: 0.789459
deltaT = 1.03883e+06
DILUPBiCG:  Solving for T, Initial residual = 0.000405456, Final residual = 6.28344e-07, No Iterations 1
DICPCG:  Solving for p, Initial residual = 0.000212297, Final residual = 8.99082e-13, No Iterations 285
Time = 7517737241.4339 s = 238.386 year  Progress = 79.462%

ExecutionTime = 23.6627 m ClockTime = 23.9333 m

Courant Number mean: 0.0106821 max: 0.794408
deltaT = 1.03883e+06
DILUPBiCG:  Solving for T, Initial residual = 0.000407839, Final residual = 5.7043e-07, No Iterations 1
DICPCG:  Solving for p, Initial residual = 0.000223841, Final residual = 9.19537e-13, No Iterations 282
Time = 7518776073.2414 s = 238.419 year  Progress = 79.4729%

ExecutionTime = 23.6678 m ClockTime = 23.95 m

Courant Number mean: 0.0106948 max: 0.80464
deltaT = 1.01763e+06
DILUPBiCG:  Solving for T, Initial residual = 0.000404384, Final residual = 5.25887e-07, No Iterations 1
DICPCG:  Solving for p, Initial residual = 0.000237908, Final residual = 9.8396e-13, No Iterations 286
Time = 7519793704.3997 s = 238.451 year  Progress = 79.4837%

ExecutionTime = 23.6728 m ClockTime = 23.95 m

Courant Number mean: 0.0104987 max: 0.797783
deltaT = 1.01763e+06
DILUPBiCG:  Solving for T, Initial residual = 0.00040626, Final residual = 6.40003e-07, No Iterations 1
DICPCG:  Solving for p, Initial residual = 0.000238158, Final residual = 9.95532e-13, No Iterations 282
Time = 7520811335.5581 s = 238.483 year  Progress = 79.4945%

ExecutionTime = 23.678 m ClockTime = 23.95 m

Courant Number mean: 0.0105041 max: 0.7968
deltaT = 1.01763e+06
DILUPBiCG:  Solving for T, Initial residual = 0.000411673, Final residual = 7.07413e-07, No Iterations 1
DICPCG:  Solving for p, Initial residual = 0.000239613, Final residual = 9.99307e-13, No Iterations 282
Time = 7521828966.7164 s = 238.516 year  Progress = 79.5052%

ExecutionTime = 23.6832 m ClockTime = 23.9667 m

Courant Number mean: 0.0105078 max: 0.78023
deltaT = 1.04025e+06
DILUPBiCG:  Solving for T, Initial residual = 0.000425367, Final residual = 8.88984e-07, No Iterations 1
DICPCG:  Solving for p, Initial residual = 0.000245695, Final residual = 8.54012e-13, No Iterations 285
Time = 7522869211.9005 s = 238.549 year  Progress = 79.5162%

ExecutionTime = 23.6882 m ClockTime = 23.9667 m

Courant Number mean: 0.0107589 max: 0.767013
deltaT = 1.06444e+06
DILUPBiCG:  Solving for T, Initial residual = 0.000440994, Final residual = 7.37865e-09, No Iterations 2
DICPCG:  Solving for p, Initial residual = 0.00025097, Final residual = 9.55465e-13, No Iterations 283
Time = 7523933648.833 s = 238.582 year  Progress = 79.5275%

ExecutionTime = 23.6933 m ClockTime = 23.9667 m

Courant Number mean: 0.0110248 max: 0.74969
deltaT = 1.11766e+06
DILUPBiCG:  Solving for T, Initial residual = 0.000467498, Final residual = 1.39739e-08, No Iterations 2
DICPCG:  Solving for p, Initial residual = 0.000254107, Final residual = 9.56654e-13, No Iterations 288
Time = 7525051307.6122 s = 238.618 year  Progress = 79.5393%

ExecutionTime = 23.6985 m ClockTime = 23.9833 m

Courant Number mean: 0.0115968 max: 0.786742
deltaT = 1.11766e+06
DILUPBiCG:  Solving for T, Initial residual = 0.000471558, Final residual = 8.30578e-07, No Iterations 1
DICPCG:  Solving for p, Initial residual = 0.000264669, Final residual = 9.08994e-13, No Iterations 285
Time = 7526168966.3914 s = 238.653 year  Progress = 79.5511%

ExecutionTime = 23.7035 m ClockTime = 23.9833 m

Courant Number mean: 0.0116138 max: 0.76542
deltaT = 1.14787e+06
DILUPBiCG:  Solving for T, Initial residual = 0.000487899, Final residual = 2.18371e-07, No Iterations 2
DICPCG:  Solving for p, Initial residual = 0.000268075, Final residual = 8.63587e-13, No Iterations 289
Time = 7527316832.1646 s = 238.69 year  Progress = 79.5632%

ExecutionTime = 23.7088 m ClockTime = 23.9833 m

Courant Number mean: 0.0119474 max: 0.732686
deltaT = 1.25222e+06
DILUPBiCG:  Solving for T, Initial residual = 0.000535929, Final residual = 7.83821e-07, No Iterations 2
DICPCG:  Solving for p, Initial residual = 0.000292846, Final residual = 9.81188e-13, No Iterations 284
Time = 7528569049.3717 s = 238.729 year  Progress = 79.5765%

ExecutionTime = 23.714 m ClockTime = 24 m

Courant Number mean: 0.0130542 max: 0.866886
deltaT = 1.14488e+06
DILUPBiCG:  Solving for T, Initial residual = 0.000485813, Final residual = 1.3152e-07, No Iterations 2
DICPCG:  Solving for p, Initial residual = 0.000303568, Final residual = 9.1952e-13, No Iterations 291
Time = 7529713933.6754 s = 238.766 year  Progress = 79.5886%

ExecutionTime = 23.7193 m ClockTime = 24 m

Courant Number mean: 0.0119463 max: 0.800567
deltaT = 1.11217e+06
DILUPBiCG:  Solving for T, Initial residual = 0.000469711, Final residual = 1.44119e-07, No Iterations 2
DICPCG:  Solving for p, Initial residual = 0.000271949, Final residual = 9.28676e-13, No Iterations 290
Time = 7530826106.9989 s = 238.801 year  Progress = 79.6003%

ExecutionTime = 23.7248 m ClockTime = 24 m

Courant Number mean: 0.0116081 max: 0.706928
deltaT = 1.2198e+06
DILUPBiCG:  Solving for T, Initial residual = 0.000516832, Final residual = 6.79232e-08, No Iterations 2
DICPCG:  Solving for p, Initial residual = 0.000264561, Final residual = 9.49455e-13, No Iterations 300
Time = 7532045909.999 s = 238.84 year  Progress = 79.6132%

ExecutionTime = 23.7302 m ClockTime = 24 m

Courant Number mean: 0.0127488 max: 0.772228
deltaT = 1.26187e+06
DILUPBiCG:  Solving for T, Initial residual = 0.000532002, Final residual = 3.27071e-08, No Iterations 3
DICPCG:  Solving for p, Initial residual = 0.000316892, Final residual = 9.37096e-13, No Iterations 299
Time = 7533307775.1714 s = 238.88 year  Progress = 79.6265%

ExecutionTime = 23.7353 m ClockTime = 24.0167 m

Courant Number mean: 0.0132005 max: 0.841353
deltaT = 1.17774e+06
DILUPBiCG:  Solving for T, Initial residual = 0.000493322, Final residual = 2.74973e-07, No Iterations 2
DICPCG:  Solving for p, Initial residual = 0.000323512, Final residual = 9.24399e-13, No Iterations 288
Time = 7534485515.999 s = 238.917 year  Progress = 79.639%

ExecutionTime = 23.7403 m ClockTime = 24.0167 m

Courant Number mean: 0.0122978 max: 0.813323
deltaT = 1.13848e+06
DILUPBiCG:  Solving for T, Initial residual = 0.000470961, Final residual = 9.04017e-08, No Iterations 2
DICPCG:  Solving for p, Initial residual = 0.000289494, Final residual = 9.60133e-13, No Iterations 292
Time = 7535623998.7991 s = 238.953 year  Progress = 79.651%

ExecutionTime = 23.7455 m ClockTime = 24.0167 m

Courant Number mean: 0.0118619 max: 0.805682
deltaT = 1.10053e+06
DILUPBiCG:  Solving for T, Initial residual = 0.000450056, Final residual = 5.54141e-08, No Iterations 2
DICPCG:  Solving for p, Initial residual = 0.000269669, Final residual = 9.59999e-13, No Iterations 291
Time = 7536724532.1724 s = 238.988 year  Progress = 79.6627%

ExecutionTime = 23.7505 m ClockTime = 24.0333 m

Courant Number mean: 0.0114495 max: 0.792587
deltaT = 1.10053e+06
DILUPBiCG:  Solving for T, Initial residual = 0.000446068, Final residual = 3.5216e-08, No Iterations 2
DICPCG:  Solving for p, Initial residual = 0.00025272, Final residual = 8.88967e-13, No Iterations 287
Time = 7537825065.5458 s = 239.023 year  Progress = 79.6743%

ExecutionTime = 23.7557 m ClockTime = 24.0333 m

Courant Number mean: 0.0114389 max: 0.80294
deltaT = 1.06258e+06
DILUPBiCG:  Solving for T, Initial residual = 0.000428461, Final residual = 6.91406e-07, No Iterations 1
DICPCG:  Solving for p, Initial residual = 0.000247032, Final residual = 9.52685e-13, No Iterations 282
Time = 7538887649.4925 s = 239.057 year  Progress = 79.6855%

ExecutionTime = 23.7607 m ClockTime = 24.0333 m

Courant Number mean: 0.0110374 max: 0.792547
deltaT = 1.06258e+06
DILUPBiCG:  Solving for T, Initial residual = 0.000429508, Final residual = 1.97107e-07, No Iterations 2
DICPCG:  Solving for p, Initial residual = 0.000237795, Final residual = 9.47997e-13, No Iterations 281
Time = 7539950233.4392 s = 239.09 year  Progress = 79.6968%

ExecutionTime = 23.7658 m ClockTime = 24.05 m

Courant Number mean: 0.0110307 max: 0.80251
deltaT = 1.02463e+06
DILUPBiCG:  Solving for T, Initial residual = 0.000413948, Final residual = 8.35355e-07, No Iterations 1
DICPCG:  Solving for p, Initial residual = 0.000234544, Final residual = 9.07382e-13, No Iterations 280
Time = 7540974867.9592 s = 239.123 year  Progress = 79.7076%

ExecutionTime = 23.7708 m ClockTime = 24.05 m

Courant Number mean: 0.0106324 max: 0.777536
deltaT = 1.02463e+06
DILUPBiCG:  Solving for T, Initial residual = 0.000414103, Final residual = 4.18931e-08, No Iterations 2
DICPCG:  Solving for p, Initial residual = 0.000219162, Final residual = 9.64687e-13, No Iterations 281
Time = 7541999502.4793 s = 239.155 year  Progress = 79.7184%

ExecutionTime = 23.776 m ClockTime = 24.05 m

Courant Number mean: 0.0106294 max: 0.779802
deltaT = 1.02463e+06
DILUPBiCG:  Solving for T, Initial residual = 0.000415335, Final residual = 9.86412e-07, No Iterations 1
DICPCG:  Solving for p, Initial residual = 0.00022274, Final residual = 9.46831e-13, No Iterations 269
Time = 7543024136.9993 s = 239.188 year  Progress = 79.7292%

ExecutionTime = 23.781 m ClockTime = 24.0667 m

Courant Number mean: 0.0106247 max: 0.783092
deltaT = 1.02463e+06
DILUPBiCG:  Solving for T, Initial residual = 0.000417811, Final residual = 1.2907e-08, No Iterations 2
DICPCG:  Solving for p, Initial residual = 0.000229848, Final residual = 9.71441e-13, No Iterations 280
Time = 7544048771.5193 s = 239.22 year  Progress = 79.7401%

ExecutionTime = 23.786 m ClockTime = 24.0667 m

Courant Number mean: 0.01062 max: 0.787743
deltaT = 1.02463e+06
DILUPBiCG:  Solving for T, Initial residual = 0.000420526, Final residual = 3.95203e-09, No Iterations 2
DICPCG:  Solving for p, Initial residual = 0.000235205, Final residual = 9.29512e-13, No Iterations 283
Time = 7545073406.0393 s = 239.253 year  Progress = 79.7509%

ExecutionTime = 23.7913 m ClockTime = 24.0667 m

Courant Number mean: 0.0106155 max: 0.789409
deltaT = 1.02463e+06
DILUPBiCG:  Solving for T, Initial residual = 0.000422332, Final residual = 2.00342e-09, No Iterations 2
DICPCG:  Solving for p, Initial residual = 0.000232658, Final residual = 9.17393e-13, No Iterations 284
Time = 7546098040.5594 s = 239.285 year  Progress = 79.7617%

ExecutionTime = 23.7968 m ClockTime = 24.0833 m

Courant Number mean: 0.0106119 max: 0.786632
deltaT = 1.02463e+06
DILUPBiCG:  Solving for T, Initial residual = 0.000424275, Final residual = 4.33359e-09, No Iterations 2
DICPCG:  Solving for p, Initial residual = 0.000232762, Final residual = 9.09734e-13, No Iterations 286
Time = 7547122675.0794 s = 239.318 year  Progress = 79.7726%

ExecutionTime = 23.8018 m ClockTime = 24.0833 m

Courant Number mean: 0.0106108 max: 0.78482
deltaT = 1.02463e+06
DILUPBiCG:  Solving for T, Initial residual = 0.000426825, Final residual = 6.71905e-09, No Iterations 2
DICPCG:  Solving for p, Initial residual = 0.000233782, Final residual = 9.76137e-13, No Iterations 283
Time = 7548147309.5994 s = 239.35 year  Progress = 79.7834%

ExecutionTime = 23.807 m ClockTime = 24.0833 m

Courant Number mean: 0.0106162 max: 0.788861
deltaT = 1.02463e+06
DILUPBiCG:  Solving for T, Initial residual = 0.000429559, Final residual = 9.95586e-07, No Iterations 1
DICPCG:  Solving for p, Initial residual = 0.000238303, Final residual = 9.63336e-13, No Iterations 296
Time = 7549171944.1195 s = 239.383 year  Progress = 79.7942%

ExecutionTime = 23.812 m ClockTime = 24.0833 m

Courant Number mean: 0.0106306 max: 0.799205
deltaT = 1.02463e+06
DILUPBiCG:  Solving for T, Initial residual = 0.000429547, Final residual = 3.20694e-08, No Iterations 2
DICPCG:  Solving for p, Initial residual = 0.000251719, Final residual = 9.72849e-13, No Iterations 292
Time = 7550196578.6395 s = 239.415 year  Progress = 79.8051%

ExecutionTime = 23.817 m ClockTime = 24.1 m

Courant Number mean: 0.0106464 max: 0.809819
deltaT = 970706
DILUPBiCG:  Solving for T, Initial residual = 0.000404353, Final residual = 8.05285e-07, No Iterations 1
DICPCG:  Solving for p, Initial residual = 0.000253398, Final residual = 8.93617e-13, No Iterations 287
Time = 7551167285.0269 s = 239.446 year  Progress = 79.8153%

ExecutionTime = 23.8222 m ClockTime = 24.1 m

Courant Number mean: 0.0100908 max: 0.768288
deltaT = 970706
DILUPBiCG:  Solving for T, Initial residual = 0.000405007, Final residual = 7.14996e-07, No Iterations 1
